SandboxData_C2S7_20210305/C2S7N00793/scenario_010/case.raw
0,100.0,33,0,0,50.0
GRID OPTIMIZATION COMPETITION CHALLENGE 2
INPUT DATA FILES ARE RAW JSON CON
1,'            ',115.0,1,1,1,1,1.35464668,-5.83024289,2.12,0.465,2.12,0.465
2,'            ',115.0,1,1,1,1,1.15854747,-10.66502537,2.12,0.465,2.12,0.465
3,'            ',35.0,1,1,1,1,1.29206245,-6.09759388,2.12,0.465,2.12,0.465
4,'            ',115.0,1,1,1,1,1.41348819,-4.64639608,2.12,0.465,2.12,0.465
5,'            ',13.0,1,1,1,1,1.15743651,-11.17314675,2.12,0.465,2.12,0.465
6,'            ',14.0,1,1,1,1,1.32815923,-9.10053966,2.12,0.465,2.12,0.465
7,'            ',115.0,1,1,1,1,1.29958844,-5.9162689,2.12,0.465,2.12,0.465
8,'            ',13.0,1,1,1,1,1.15845318,-10.61012817,2.12,0.465,2.12,0.465
9,'            ',35.0,1,1,1,1,1.31945557,-6.0747666,2.12,0.465,2.12,0.465
10,'            ',115.0,1,1,1,1,1.15665569,-11.11879634,2.12,0.465,2.12,0.465
11,'            ',115.0,1,1,1,1,1.26126448,-11.22438261,2.12,0.465,2.12,0.465
12,'            ',35.0,1,1,1,1,1.27717859,-3.59078582,2.12,0.465,2.12,0.465
13,'            ',13.0,1,1,1,1,1.28519456,-8.7626713,2.12,0.465,2.12,0.465
15,'            ',35.0,1,1,1,1,1.18441797,-6.21518719,2.12,0.465,2.12,0.465
16,'            ',115.0,1,1,1,1,1.41672172,-4.7066319,2.12,0.465,2.12,0.465
17,'            ',115.0,1,1,1,1,1.40629443,-5.23294964,2.12,0.465,2.12,0.465
18,'            ',230.0,1,1,1,1,1.27192532,-6.40839646,2.12,0.465,2.12,0.465
19,'            ',230.0,1,1,1,1,1.27261006,-6.40755121,2.12,0.465,2.12,0.465
20,'            ',13.0,1,1,1,1,1.41350345,-4.69178739,2.12,0.465,2.12,0.465
21,'            ',115.0,1,1,1,1,1.25751265,-13.33375579,2.12,0.465,2.12,0.465
22,'            ',115.0,1,1,1,1,1.2701662,-3.40519185,2.12,0.465,2.12,0.465
23,'            ',115.0,2,1,1,1,1.21579399,6.46846849,2.12,0.465,2.12,0.465
24,'            ',115.0,1,1,1,1,1.28403656,-6.57486715,2.12,0.465,2.12,0.465
25,'            ',14.0,1,1,1,1,1.20741749,-9.10053966,2.12,0.465,2.12,0.465
27,'            ',115.0,1,1,1,1,1.15638713,-11.10451503,2.12,0.465,2.12,0.465
28,'            ',35.0,1,1,1,1,1.29385458,-9.7954321,2.12,0.465,2.12,0.465
30,'            ',115.0,1,1,1,1,1.2877936,-6.41221856,2.12,0.465,2.12,0.465
31,'            ',230.0,2,1,1,1,1.27171887,-6.40726334,2.12,0.465,2.12,0.465
32,'            ',115.0,1,1,1,1,1.15734618,-10.8216683,2.12,0.465,2.12,0.465
33,'            ',230.0,1,1,1,1,1.27079248,-6.74392261,2.12,0.465,2.12,0.465
34,'            ',35.0,1,1,1,1,1.24572968,-0.29490404,2.12,0.465,2.12,0.465
35,'            ',230.0,1,1,1,1,1.27261115,-6.40755464,2.12,0.465,2.12,0.465
36,'            ',230.0,1,1,1,1,1.27079248,-6.74392261,2.12,0.465,2.12,0.465
37,'            ',230.0,1,1,1,1,1.32804619,-9.52146838,2.12,0.465,2.12,0.465
38,'            ',230.0,1,1,1,1,1.27103132,-6.45915259,2.12,0.465,2.12,0.465
39,'            ',35.0,1,1,1,1,1.39474025,-6.23492403,2.12,0.465,2.12,0.465
40,'            ',115.0,1,1,1,1,1.42982689,-5.08835765,2.12,0.465,2.12,0.465
41,'            ',230.0,1,1,1,1,1.30272777,-9.50241129,2.12,0.465,2.12,0.465
43,'            ',115.0,2,1,1,1,1.42185684,-4.01930205,2.12,0.465,2.12,0.465
44,'            ',115.0,1,1,1,1,1.21911876,5.49909683,2.12,0.465,2.12,0.465
45,'            ',230.0,1,1,1,1,1.27079248,-6.74392261,2.12,0.465,2.12,0.465
46,'            ',230.0,2,1,1,1,1.32406085,-8.01707814,2.12,0.465,2.12,0.465
47,'            ',115.0,2,1,1,1,1.44214838,-4.97230522,2.12,0.465,2.12,0.465
49,'            ',35.0,1,1,1,1,1.24572968,-0.29490404,2.12,0.465,2.12,0.465
50,'            ',115.0,1,1,1,1,1.15850363,-10.62996997,2.12,0.465,2.12,0.465
51,'            ',13.0,1,1,1,1,1.28328385,-6.6084494,2.12,0.465,2.12,0.465
52,'            ',230.0,2,1,1,1,1.30279156,-9.52738446,2.12,0.465,2.12,0.465
53,'            ',115.0,1,1,1,1,1.26979911,-11.28977917,2.12,0.465,2.12,0.465
54,'            ',35.0,1,1,1,1,1.24977405,-11.31744512,2.12,0.465,2.12,0.465
55,'            ',230.0,2,1,1,1,1.34223772,-9.10053966,2.12,0.465,2.12,0.465
56,'            ',35.0,1,1,1,1,1.27830489,-3.50784107,2.12,0.465,2.12,0.465
57,'            ',115.0,1,1,1,1,1.24626642,-14.06969977,2.12,0.465,2.12,0.465
58,'            ',115.0,1,1,1,1,1.27764465,-10.6451745,2.12,0.465,2.12,0.465
59,'            ',35.0,2,1,1,1,1.21469986,7.27169975,2.12,0.465,2.12,0.465
60,'            ',115.0,1,1,1,1,1.32016761,-6.01905124,2.12,0.465,2.12,0.465
61,'            ',13.0,1,1,1,1,1.15630609,-11.12354079,2.12,0.465,2.12,0.465
62,'            ',115.0,1,1,1,1,1.27077372,-11.21979728,2.12,0.465,2.12,0.465
63,'            ',230.0,1,1,1,1,1.33304136,-8.14600987,2.12,0.465,2.12,0.465
64,'            ',35.0,1,1,1,1,1.21480137,6.44326162,2.12,0.465,2.12,0.465
65,'            ',14.0,2,1,1,1,1.42967566,-4.19154279,2.12,0.465,2.12,0.465
66,'            ',230.0,1,1,1,1,1.27192532,-6.40839646,2.12,0.465,2.12,0.465
67,'            ',115.0,1,1,1,1,1.24978865,-0.23072573,2.12,0.465,2.12,0.465
68,'            ',115.0,1,1,1,1,1.26396195,-12.36209494,2.12,0.465,2.12,0.465
69,'            ',230.0,1,1,1,1,1.27275286,-6.40740635,2.12,0.465,2.12,0.465
70,'            ',35.0,1,1,1,1,1.1754191,-5.28447969,2.12,0.465,2.12,0.465
71,'            ',115.0,2,1,1,1,1.44532949,-4.83391512,2.12,0.465,2.12,0.465
72,'            ',115.0,1,1,1,1,1.156404,-11.04758419,2.12,0.465,2.12,0.465
73,'            ',115.0,1,1,1,1,1.29547202,-5.86812511,2.12,0.465,2.12,0.465
74,'            ',115.0,1,1,1,1,1.15861085,-10.59160338,2.12,0.465,2.12,0.465
75,'            ',13.0,1,1,1,1,1.41406022,-4.74042918,2.12,0.465,2.12,0.465
76,'            ',115.0,1,1,1,1,1.27184059,-11.13497535,2.12,0.465,2.12,0.465
77,'            ',35.0,1,1,1,1,1.06737556,-9.98010913,2.12,0.465,2.12,0.465
78,'            ',35.0,1,1,1,1,1.28720321,-6.46385916,2.12,0.465,2.12,0.465
79,'            ',230.0,1,1,1,1,1.3257615,-9.59193673,2.12,0.465,2.12,0.465
80,'            ',14.0,1,1,1,1,1.41658435,-4.71032129,2.12,0.465,2.12,0.465
81,'            ',115.0,1,1,1,1,1.28553383,-8.73258493,2.12,0.465,2.12,0.465
82,'            ',115.0,1,1,1,1,1.26977116,-11.2925164,2.12,0.465,2.12,0.465
83,'            ',115.0,1,1,1,1,1.26545324,-12.2219247,2.12,0.465,2.12,0.465
84,'            ',115.0,1,1,1,1,1.26345104,-12.40411362,2.12,0.465,2.12,0.465
85,'            ',115.0,1,1,1,1,1.24620657,-14.0751083,2.12,0.465,2.12,0.465
86,'            ',230.0,2,1,1,1,1.27717979,-6.07280602,2.12,0.465,2.12,0.465
87,'            ',230.0,1,1,1,1,1.30230124,-9.53654326,2.12,0.465,2.12,0.465
88,'            ',35.0,1,1,1,1,1.40363236,-4.41909397,2.12,0.465,2.12,0.465
89,'            ',35.0,1,1,1,1,1.39937607,-6.66894231,2.12,0.465,2.12,0.465
90,'            ',230.0,2,1,1,1,1.33315294,-8.088442,2.12,0.465,2.12,0.465
91,'            ',115.0,1,1,1,1,1.26598127,-12.15094756,2.12,0.465,2.12,0.465
92,'            ',115.0,1,1,1,1,1.26233883,-11.19735251,2.12,0.465,2.12,0.465
93,'            ',115.0,2,1,1,1,1.40770055,-5.16503264,2.12,0.465,2.12,0.465
94,'            ',115.0,1,1,1,1,1.28475656,-6.54041312,2.12,0.465,2.12,0.465
95,'            ',345.0,1,1,1,1,1.41562696,0.46080615,2.12,0.465,2.12,0.465
96,'            ',345.0,1,1,1,1,1.41551978,0.45821063,2.12,0.465,2.12,0.465
97,'            ',345.0,1,1,1,1,1.42236759,0.43066719,2.12,0.465,2.12,0.465
98,'            ',345.0,1,1,1,1,1.42243716,0.42991168,2.12,0.465,2.12,0.465
99,'            ',345.0,1,1,1,1,1.42250545,0.63626637,2.12,0.465,2.12,0.465
100,'            ',345.0,1,1,1,1,1.42279701,0.62673026,2.12,0.465,2.12,0.465
101,'            ',345.0,1,1,1,1,1.4231844,-0.23344281,2.12,0.465,2.12,0.465
102,'            ',345.0,1,1,1,1,1.42415222,-0.10915253,2.12,0.465,2.12,0.465
103,'            ',138.0,1,1,1,1,1.53299857,1.59177586,2.12,0.465,2.12,0.465
104,'            ',138.0,1,1,1,1,1.47569378,16.59181817,2.12,0.465,2.12,0.465
105,'            ',138.0,2,1,1,1,1.4746284,16.49531481,2.12,0.465,2.12,0.465
106,'            ',138.0,1,1,1,1,1.36941274,5.14667587,2.12,0.465,2.12,0.465
107,'            ',138.0,1,1,1,1,1.36978486,5.14267921,2.12,0.465,2.12,0.465
108,'            ',138.0,1,1,1,1,1.50841387,18.29043283,2.12,0.465,2.12,0.465
109,'            ',138.0,1,1,1,1,1.51909467,1.1459562,2.12,0.465,2.12,0.465
110,'            ',138.0,1,1,1,1,1.36794087,5.20143699,2.12,0.465,2.12,0.465
111,'            ',138.0,1,1,1,1,1.36817771,5.19839311,2.12,0.465,2.12,0.465
112,'            ',138.0,1,1,1,1,1.32931005,4.29272678,2.12,0.465,2.12,0.465
113,'            ',138.0,1,1,1,1,1.32931005,4.29272678,2.12,0.465,2.12,0.465
114,'            ',138.0,1,1,1,1,1.32942238,4.29935844,2.12,0.465,2.12,0.465
115,'            ',138.0,1,1,1,1,1.53719745,0.93689847,2.12,0.465,2.12,0.465
116,'            ',138.0,1,1,1,1,1.56942163,1.45800823,2.12,0.465,2.12,0.465
117,'            ',138.0,1,1,1,1,1.57083834,1.45857599,2.12,0.465,2.12,0.465
118,'            ',138.0,1,1,1,1,1.52711604,1.40712784,2.12,0.465,2.12,0.465
119,'            ',138.0,1,1,1,1,1.52723688,1.41276462,2.12,0.465,2.12,0.465
120,'            ',138.0,1,1,1,1,1.52424085,1.05819563,2.12,0.465,2.12,0.465
121,'            ',138.0,1,1,1,1,1.52250066,1.25687243,2.12,0.465,2.12,0.465
122,'            ',138.0,1,1,1,1,1.52252794,1.25852813,2.12,0.465,2.12,0.465
123,'            ',138.0,1,1,1,1,1.5225283,1.25852397,2.12,0.465,2.12,0.465
124,'            ',138.0,1,1,1,1,1.52250099,1.25686846,2.12,0.465,2.12,0.465
125,'            ',138.0,1,1,1,1,1.5191414,1.14856802,2.12,0.465,2.12,0.465
126,'            ',138.0,1,1,1,1,1.53720714,0.93678873,2.12,0.465,2.12,0.465
127,'            ',138.0,1,1,1,1,1.36277754,5.66769574,2.12,0.465,2.12,0.465
128,'            ',138.0,1,1,1,1,1.36256647,5.68863501,2.12,0.465,2.12,0.465
129,'            ',138.0,1,1,1,1,1.31519546,8.23528363,2.12,0.465,2.12,0.465
130,'            ',138.0,1,1,1,1,1.31535735,8.2372312,2.12,0.465,2.12,0.465
131,'            ',138.0,1,1,1,1,1.32914761,4.28105607,2.12,0.465,2.12,0.465
132,'            ',138.0,1,1,1,1,1.56929328,1.45195172,2.12,0.465,2.12,0.465
133,'            ',138.0,1,1,1,1,1.5682327,1.06318691,2.12,0.465,2.12,0.465
134,'            ',138.0,2,1,1,1,1.4050796,-0.13350995,2.12,0.465,2.12,0.465
135,'            ',138.0,1,1,1,1,1.51879163,1.13025927,2.12,0.465,2.12,0.465
136,'            ',138.0,1,1,1,1,1.52247141,1.25516002,2.12,0.465,2.12,0.465
137,'            ',138.0,1,1,1,1,1.2327119,7.04400435,2.12,0.465,2.12,0.465
138,'            ',138.0,1,1,1,1,1.40926797,12.47906848,2.12,0.465,2.12,0.465
139,'            ',138.0,1,1,1,1,1.40926942,12.47911631,2.12,0.465,2.12,0.465
140,'            ',138.0,1,1,1,1,1.36460245,5.29662293,2.12,0.465,2.12,0.465
141,'            ',138.0,1,1,1,1,1.35947453,5.44432151,2.12,0.465,2.12,0.465
142,'            ',138.0,1,1,1,1,1.55993528,1.64134785,2.12,0.465,2.12,0.465
143,'            ',138.0,1,1,1,1,1.55970905,1.64667905,2.12,0.465,2.12,0.465
144,'            ',138.0,1,1,1,1,1.51913981,1.14858647,2.12,0.465,2.12,0.465
145,'            ',138.0,1,1,1,1,1.6135677,1.38820692,2.12,0.465,2.12,0.465
146,'            ',138.0,1,1,1,1,1.37194409,4.67643029,2.12,0.465,2.12,0.465
147,'            ',138.0,1,1,1,1,1.37193432,4.66616242,2.12,0.465,2.12,0.465
148,'            ',138.0,1,1,1,1,1.58707027,0.65198826,2.12,0.465,2.12,0.465
149,'            ',138.0,1,1,1,1,1.58744095,0.66344868,2.12,0.465,2.12,0.465
150,'            ',138.0,1,1,1,1,1.53712514,0.93437787,2.12,0.465,2.12,0.465
151,'            ',138.0,2,1,1,1,1.35832687,8.81445436,2.12,0.465,2.12,0.465
152,'            ',138.0,2,1,1,1,1.53281402,1.59364952,2.12,0.465,2.12,0.465
153,'            ',138.0,1,1,1,1,1.56490444,1.52136582,2.12,0.465,2.12,0.465
154,'            ',138.0,1,1,1,1,1.56465702,1.52480298,2.12,0.465,2.12,0.465
155,'            ',138.0,1,1,1,1,1.37472967,5.06621791,2.12,0.465,2.12,0.465
156,'            ',138.0,1,1,1,1,1.37514967,5.07730466,2.12,0.465,2.12,0.465
157,'            ',138.0,1,1,1,1,1.35035634,5.19846944,2.12,0.465,2.12,0.465
158,'            ',138.0,1,1,1,1,1.35046832,5.20341043,2.12,0.465,2.12,0.465
159,'            ',138.0,2,1,1,1,1.32661024,6.04407323,2.12,0.465,2.12,0.465
160,'            ',138.0,1,1,1,1,1.32721708,6.03743261,2.12,0.465,2.12,0.465
161,'            ',138.0,1,1,1,1,1.52454414,1.31976472,2.12,0.465,2.12,0.465
162,'            ',138.0,1,1,1,1,1.52436174,1.31153012,2.12,0.465,2.12,0.465
163,'            ',138.0,1,1,1,1,1.34881481,5.53469039,2.12,0.465,2.12,0.465
164,'            ',138.0,1,1,1,1,1.34900612,5.53696362,2.12,0.465,2.12,0.465
165,'            ',138.0,1,1,1,1,1.37466149,5.06221643,2.12,0.465,2.12,0.465
166,'            ',138.0,1,1,1,1,1.37510153,5.07404177,2.12,0.465,2.12,0.465
167,'            ',138.0,1,1,1,1,1.56958749,1.31437869,2.12,0.465,2.12,0.465
168,'            ',138.0,1,1,1,1,1.56958173,1.31987127,2.12,0.465,2.12,0.465
169,'            ',138.0,1,1,1,1,1.49852949,17.80627461,2.12,0.465,2.12,0.465
170,'            ',138.0,1,1,1,1,1.49861971,17.81086952,2.12,0.465,2.12,0.465
171,'            ',138.0,1,1,1,1,1.34730709,5.53479292,2.12,0.465,2.12,0.465
172,'            ',138.0,1,1,1,1,1.34775586,5.53136856,2.12,0.465,2.12,0.465
173,'            ',138.0,1,1,1,1,1.28282612,7.74503018,2.12,0.465,2.12,0.465
174,'            ',138.0,1,1,1,1,1.28360706,7.7890186,2.12,0.465,2.12,0.465
175,'            ',138.0,1,1,1,1,1.56161575,0.76795552,2.12,0.465,2.12,0.465
176,'            ',138.0,1,1,1,1,1.56258786,0.76935019,2.12,0.465,2.12,0.465
177,'            ',138.0,1,1,1,1,1.53313907,0.97362122,2.12,0.465,2.12,0.465
178,'            ',138.0,1,1,1,1,1.53313776,0.97363792,2.12,0.465,2.12,0.465
179,'            ',138.0,2,1,1,1,1.42922487,13.77914472,2.12,0.465,2.12,0.465
180,'            ',138.0,1,1,1,1,1.43029825,13.89433552,2.12,0.465,2.12,0.465
181,'            ',138.0,1,1,1,1,1.3594255,6.55802795,2.12,0.465,2.12,0.465
182,'            ',138.0,1,1,1,1,1.35961471,6.535409,2.12,0.465,2.12,0.465
183,'            ',138.0,1,1,1,1,1.35814031,7.68527376,2.12,0.465,2.12,0.465
184,'            ',138.0,1,1,1,1,1.55706642,1.48553959,2.12,0.465,2.12,0.465
185,'            ',138.0,1,1,1,1,1.55793368,1.48341345,2.12,0.465,2.12,0.465
186,'            ',138.0,1,1,1,1,1.55727801,1.49259196,2.12,0.465,2.12,0.465
187,'            ',138.0,1,1,1,1,1.55818972,1.49150212,2.12,0.465,2.12,0.465
188,'            ',138.0,1,1,1,1,1.35815769,8.31204738,2.12,0.465,2.12,0.465
189,'            ',138.0,1,1,1,1,1.35799764,8.33642671,2.12,0.465,2.12,0.465
190,'            ',138.0,2,1,1,1,1.33624293,4.75143484,2.12,0.465,2.12,0.465
191,'            ',138.0,1,1,1,1,1.52208907,1.11132547,2.12,0.465,2.12,0.465
192,'            ',138.0,1,1,1,1,1.52212414,1.11289419,2.12,0.465,2.12,0.465
193,'            ',138.0,1,1,1,1,1.51890482,1.13617121,2.12,0.465,2.12,0.465
194,'            ',138.0,1,1,1,1,1.55945942,1.73248611,2.12,0.465,2.12,0.465
195,'            ',138.0,1,1,1,1,1.55959133,1.73924434,2.12,0.465,2.12,0.465
196,'            ',138.0,1,1,1,1,1.33635712,4.74959322,2.12,0.465,2.12,0.465
197,'            ',138.0,1,1,1,1,1.52252862,1.25851952,2.12,0.465,2.12,0.465
198,'            ',138.0,1,1,1,1,1.52707977,1.0265222,2.12,0.465,2.12,0.465
199,'            ',138.0,1,1,1,1,1.52708411,1.02670636,2.12,0.465,2.12,0.465
200,'            ',138.0,1,1,1,1,1.37308719,5.07953999,2.12,0.465,2.12,0.465
201,'            ',138.0,1,1,1,1,1.37347737,5.07765825,2.12,0.465,2.12,0.465
202,'            ',138.0,1,1,1,1,1.3711187,5.11798302,2.12,0.465,2.12,0.465
203,'            ',138.0,1,1,1,1,1.37074689,5.12196771,2.12,0.465,2.12,0.465
204,'            ',138.0,1,1,1,1,1.37193695,5.11914973,2.12,0.465,2.12,0.465
205,'            ',138.0,1,1,1,1,1.37123171,5.12438156,2.12,0.465,2.12,0.465
...
0 / END OF BUS DATA BEGIN LOAD DATA
1,'1',1,1,1,17.463,7.351,0.0,0.0,0.0,0.0,1,1,0
2,'1',1,1,1,10.066,2.238,0.0,0.0,0.0,0.0,1,1,0
2,'2',1,1,1,0.125,0.579,0.0,0.0,0.0,0.0,1,1,0
2,'99',0,1,1,16.545,15.406,0.0,0.0,0.0,0.0,1,1,0
3,'1',1,1,1,10.021,2.84,0.0,0.0,0.0,0.0,1,1,0
5,'1',1,1,1,0.557,-1.443,0.0,0.0,0.0,0.0,1,1,0
7,'1',1,1,1,7.726,4.42,0.0,0.0,0.0,0.0,1,1,0
8,'1',1,1,1,2.409,0.409,0.0,0.0,0.0,0.0,1,1,0
9,'1',1,1,1,14.884,2.92,0.0,0.0,0.0,0.0,1,1,0
12,'1',1,1,1,11.066,7.271,0.0,0.0,0.0,0.0,1,1,0
13,'1',1,1,1,9.18,2.522,0.0,0.0,0.0,0.0,1,1,0
15,'1',1,1,1,14.759,3.806,0.0,0.0,0.0,0.0,1,1,0
20,'1',1,1,1,14.44,-4.59,0.0,0.0,0.0,0.0,1,1,0
21,'1',1,1,1,8.964,-1.204,0.0,0.0,0.0,0.0,1,1,0
28,'1',1,1,1,27.506,3.272,0.0,0.0,0.0,0.0,1,1,0
32,'1',1,1,1,7.919,1.329,0.0,0.0,0.0,0.0,1,1,0
34,'1',1,1,1,11.089,9.112,0.0,0.0,0.0,0.0,1,1,0
36,'99',0,1,1,108.412,-4.52,0.0,0.0,0.0,0.0,1,1,0
37,'1',0,1,1,1.0,1.0,0.0,0.0,0.0,0.0,1,1,0
39,'1',1,1,1,19.701,7.93,0.0,0.0,0.0,0.0,1,1,0
43,'1',1,1,1,2.272,0.511,0.0,0.0,0.0,0.0,1,1,0
44,'1',1,1,1,10.021,2.545,0.0,0.0,0.0,0.0,1,1,0
47,'1',1,1,1,11.941,-1.693,0.0,0.0,0.0,0.0,1,1,0
49,'1',1,1,1,11.089,9.112,0.0,0.0,0.0,0.0,1,1,0
51,'1',1,1,1,5.681,3.408,0.0,0.0,0.0,0.0,1,1,0
53,'1',1,1,1,7.93,0.614,0.0,0.0,0.0,0.0,1,1,0
54,'1',1,1,1,16.213,-1.227,0.0,0.0,0.0,0.0,1,1,0
56,'1',1,1,1,7.112,6.578,0.0,0.0,0.0,0.0,1,1,0
57,'1',1,1,1,8.146,-0.307,0.0,0.0,0.0,0.0,1,1,0
58,'99',0,1,1,10.106,10.951,0.0,0.0,0.0,0.0,1,1,0
59,'1',1,1,1,10.123,5.976,0.0,0.0,0.0,0.0,1,1,0
61,'1',1,1,1,4.261,-0.523,0.0,0.0,0.0,0.0,1,1,0
62,'1',1,1,1,8.851,-0.307,0.0,0.0,0.0,0.0,1,1,0
63,'1',1,1,1,33.539,0.102,0.0,0.0,0.0,0.0,1,1,0
64,'1',1,1,1,9.623,8.532,0.0,0.0,0.0,0.0,1,1,0
65,'1',1,1,1,1.034,0.67,0.0,0.0,0.0,0.0,1,1,0
68,'1',1,1,1,7.987,-0.295,0.0,0.0,0.0,0.0,1,1,0
70,'1',1,1,1,6.294,-3.942,0.0,0.0,0.0,0.0,1,1,0
71,'1',1,1,1,6.385,-1.988,0.0,0.0,0.0,0.0,1,1,0
71,'2',1,1,1,6.385,-1.988,0.0,0.0,0.0,0.0,1,1,0
72,'1',1,1,1,6.078,0.398,0.0,0.0,0.0,0.0,1,1,0
74,'1',0,1,1,1.0,1.0,0.0,0.0,0.0,0.0,1,1,0
74,'2',1,1,1,7.919,5.01,0.0,0.0,0.0,0.0,1,1,0
75,'1',1,1,1,3.386,-2.749,0.0,0.0,0.0,0.0,1,1,0
76,'1',1,1,1,6.067,-0.307,0.0,0.0,0.0,0.0,1,1,0
77,'1',1,1,1,26.62,0.477,0.0,0.0,0.0,0.0,1,1,0
78,'1',1,1,1,15.849,3.908,0.0,0.0,0.0,0.0,1,1,0
80,'1',1,1,1,1.023,0.614,0.0,0.0,0.0,0.0,1,1,0
81,'99',0,1,1,30.844,22.078,0.0,0.0,0.0,0.0,1,1,0
82,'1',1,1,1,7.93,0.614,0.0,0.0,0.0,0.0,1,1,0
84,'1',1,1,1,9.839,0.625,0.0,0.0,0.0,0.0,1,1,0
85,'1',1,1,1,15.531,4.351,0.0,0.0,0.0,0.0,1,1,0
88,'1',0,1,1,1.0,1.0,0.0,0.0,0.0,0.0,1,1,0
89,'1',1,1,1,22.212,0.023,0.0,0.0,0.0,0.0,1,1,0
92,'1',1,1,1,5.147,-0.307,0.0,0.0,0.0,0.0,1,1,0
94,'1',1,1,1,2.465,2.852,0.0,0.0,0.0,0.0,1,1,0
96,'99',1,1,1,25.176,44.713,0.0,0.0,0.0,0.0,1,1,0
97,'99',1,1,1,21.395,28.751,0.0,0.0,0.0,0.0,1,1,0
99,'1',1,1,1,7.953,20.451,0.0,0.0,0.0,0.0,1,1,0
100,'1',1,1,1,9.089,23.859,0.0,0.0,0.0,0.0,1,1,0
101,'99',1,1,1,116.754,22.254,0.0,0.0,0.0,0.0,1,1,0
102,'99',0,1,1,1.156,-45.892,0.0,0.0,0.0,0.0,1,1,0
105,'1',1,1,1,4.863,1.795,0.0,0.0,0.0,0.0,1,1,0
106,'1',1,1,1,6.226,2.613,0.0,0.0,0.0,0.0,1,1,0
108,'1',1,1,1,8.748,2.909,0.0,0.0,0.0,0.0,1,1,0
108,'99',1,1,1,2.345,-18.349,0.0,0.0,0.0,0.0,1,1,0
109,'1',1,1,1,9.35,2.454,0.0,0.0,0.0,0.0,1,1,0
110,'1',1,1,1,2.125,0.909,0.0,0.0,0.0,0.0,1,1,0
111,'1',1,1,1,3.795,1.613,0.0,0.0,0.0,0.0,1,1,0
112,'1',1,1,1,15.361,5.715,0.0,0.0,0.0,0.0,1,1,0
115,'1',1,1,1,5.465,1.966,0.0,0.0,0.0,0.0,1,1,0
116,'1',1,1,1,26.824,23.973,0.0,0.0,0.0,0.0,1,1,0
118,'1',1,1,1,6.203,2.625,0.0,0.0,0.0,0.0,1,1,0
120,'1',1,1,1,10.93,3.568,0.0,0.0,0.0,0.0,1,1,0
128,'1',1,1,1,1.136,0.432,0.0,0.0,0.0,0.0,1,1,0
129,'1',1,1,1,5.101,3.533,0.0,0.0,0.0,0.0,1,1,0
131,'1',1,1,1,90.892,44.31,0.0,0.0,0.0,0.0,1,1,0
132,'1',1,1,1,5.942,2.056,0.0,0.0,0.0,0.0,1,1,0
133,'1',1,1,1,2.181,0.682,0.0,0.0,0.0,0.0,1,1,0
134,'1',1,1,1,60.216,28.426,0.0,0.0,0.0,0.0,1,1,0
135,'1',1,1,1,6.817,2.42,0.0,0.0,0.0,0.0,1,1,0
136,'1',1,1,1,3.158,1.023,0.0,0.0,0.0,0.0,1,1,0
137,'1',1,1,1,12.009,3.988,0.0,0.0,0.0,0.0,1,1,0
137,'99',0,1,1,28.183,-12.764,0.0,0.0,0.0,0.0,1,1,0
138,'1',1,1,1,0.489,0.114,0.0,0.0,0.0,0.0,1,1,0
140,'1',1,1,1,3.158,1.886,0.0,0.0,0.0,0.0,1,1,0
141,'1',1,1,1,6.624,0.761,0.0,0.0,0.0,0.0,1,1,0
142,'1',1,1,1,9.226,3.136,0.0,0.0,0.0,0.0,1,1,0
143,'99',0,1,1,0.426,1.249,0.0,0.0,0.0,0.0,1,1,0
145,'99',0,1,1,53.244,16.969,0.0,0.0,0.0,0.0,1,1,0
146,'1',1,1,1,1.818,0.454,0.0,0.0,0.0,0.0,1,1,0
147,'1',1,1,1,1.216,0.557,0.0,0.0,0.0,0.0,1,1,0
148,'1',1,1,1,7.419,3.17,0.0,0.0,0.0,0.0,1,1,0
149,'99',0,1,1,9.227,-8.412,0.0,0.0,0.0,0.0,1,1,0
150,'1',1,1,1,5.465,1.716,0.0,0.0,0.0,0.0,1,1,0
151,'1',1,1,1,21.485,34.323,0.0,0.0,0.0,0.0,1,1,0
152,'1',1,1,1,7.953,15.906,0.0,0.0,0.0,0.0,1,1,0
153,'1',1,1,1,10.328,3.477,0.0,0.0,0.0,0.0,1,1,0
157,'1',1,1,1,3.34,1.42,0.0,0.0,0.0,0.0,1,1,0
159,'1',1,1,1,16.531,0.625,0.0,0.0,0.0,0.0,1,1,0
160,'1',1,1,1,12.759,3.022,0.0,0.0,0.0,0.0,1,1,0
161,'1',1,1,1,7.249,3.147,0.0,0.0,0.0,0.0,1,1,0
162,'1',1,1,1,9.441,4.181,0.0,0.0,0.0,0.0,1,1,0
163,'1',1,1,1,0.966,0.091,0.0,0.0,0.0,0.0,1,1,0
165,'1',1,1,1,0.75,0.443,0.0,0.0,0.0,0.0,1,1,0
166,'1',1,1,1,0.602,0.352,0.0,0.0,0.0,0.0,1,1,0
168,'1',1,1,1,11.782,3.931,0.0,0.0,0.0,0.0,1,1,0
169,'1',1,1,1,2.92,1.057,0.0,0.0,0.0,0.0,1,1,0
171,'1',1,1,1,6.078,0.863,0.0,0.0,0.0,0.0,1,1,0
173,'1',1,1,1,8.248,3.079,0.0,0.0,0.0,0.0,1,1,0
175,'1',1,1,1,3.397,1.295,0.0,0.0,0.0,0.0,1,1,0
176,'1',1,1,1,7.294,2.59,0.0,0.0,0.0,0.0,1,1,0
179,'1',1,1,1,6.806,2.34,0.0,0.0,0.0,0.0,1,1,0
181,'1',1,1,1,5.158,2.147,0.0,0.0,0.0,0.0,1,1,0
182,'1',1,1,1,4.863,2.034,0.0,0.0,0.0,0.0,1,1,0
184,'1',1,1,1,4.136,1.397,0.0,0.0,0.0,0.0,1,1,0
185,'1',1,1,1,4.851,1.761,0.0,0.0,0.0,0.0,1,1,0
188,'1',1,1,1,0.852,0.42,0.0,0.0,0.0,0.0,1,1,0
189,'1',1,1,1,1.454,0.659,0.0,0.0,0.0,0.0,1,1,0
191,'1',1,1,1,5.226,1.966,0.0,0.0,0.0,0.0,1,1,0
193,'1',1,1,1,5.226,1.852,0.0,0.0,0.0,0.0,1,1,0
194,'1',1,1,1,13.85,4.499,0.0,0.0,0.0,0.0,1,1,0
195,'99',0,1,1,18.155,5.789,0.0,0.0,0.0,0.0,1,1,0
198,'1',1,1,1,4.374,1.568,0.0,0.0,0.0,0.0,1,1,0
200,'1',1,1,1,6.033,1.681,0.0,0.0,0.0,0.0,1,1,0
201,'1',1,1,1,8.43,2.284,0.0,0.0,0.0,0.0,1,1,0
202,'1',1,1,1,2.443,0.636,0.0,0.0,0.0,0.0,1,1,0
204,'1',1,1,1,13.429,5.294,0.0,0.0,0.0,0.0,1,1,0
205,'1',1,1,1,12.736,5.499,0.0,0.0,0.0,0.0,1,1,0
206,'1',1,1,1,4.692,1.931,0.0,0.0,0.0,0.0,1,1,0
207,'1',1,1,1,2.92,1.182,0.0,0.0,0.0,0.0,1,1,0
208,'99',1,1,1,39.047,-1.918,0.0,0.0,0.0,0.0,1,1,0
209,'1',1,1,1,0.602,0.341,0.0,0.0,0.0,0.0,1,1,0
213,'99',1,1,1,54.268,18.886,0.0,0.0,0.0,0.0,1,1,0
214,'99',1,1,1,310.208,25.184,0.0,0.0,0.0,0.0,1,1,0
216,'99',1,1,1,87.934,51.183,0.0,0.0,0.0,0.0,1,1,0
220,'99',0,1,1,659.876,-1.015,0.0,0.0,0.0,0.0,1,1,0
221,'1',1,1,1,36.539,59.159,0.0,0.0,0.0,0.0,1,1,0
222,'1',1,1,1,52.672,104.605,0.0,0.0,0.0,0.0,1,1,0
223,'1',1,1,1,68.169,136.338,0.0,0.0,0.0,0.0,1,1,0
224,'1',1,1,1,68.169,136.338,0.0,0.0,0.0,0.0,1,1,0
224,'99',1,1,1,1141.353,187.176,0.0,0.0,0.0,0.0,1,1,0
225,'99',1,1,1,424.968,96.102,0.0,0.0,0.0,0.0,1,1,0
226,'99',1,1,1,81.013,66.754,0.0,0.0,0.0,0.0,1,1,0
227,'99',1,1,1,77.329,-61.741,0.0,0.0,0.0,0.0,1,1,0
228,'1',1,1,1,44.083,-3.068,0.0,0.0,0.0,0.0,1,1,0
229,'99',1,1,1,15.957,29.013,0.0,0.0,0.0,0.0,1,1,0
231,'99',1,1,1,170.526,63.173,0.0,0.0,0.0,0.0,1,1,0
234,'99',1,1,1,8.446,43.628,0.0,0.0,0.0,0.0,1,1,0
235,'99',1,1,1,56.269,45.909,0.0,0.0,0.0,0.0,1,1,0
236,'1',1,1,1,8.748,22.723,0.0,0.0,0.0,0.0,1,1,0
236,'99',1,1,1,353.1,-14.535,0.0,0.0,0.0,0.0,1,1,0
237,'1',1,1,1,4.374,1.136,0.0,0.0,0.0,0.0,1,1,0
238,'1',1,1,1,2.579,1.261,0.0,0.0,0.0,0.0,1,1,0
239,'1',1,1,1,1.795,0.454,0.0,0.0,0.0,0.0,1,1,0
240,'1',1,1,1,5.044,1.25,0.0,0.0,0.0,0.0,1,1,0
241,'1',1,1,1,5.272,0.454,0.0,0.0,0.0,0.0,1,1,0
241,'99',1,1,1,4.046,-0.316,0.0,0.0,0.0,0.0,1,1,0
242,'1',1,1,1,15.781,8.817,0.0,0.0,0.0,0.0,1,1,0
243,'1',1,1,1,22.178,12.759,0.0,0.0,0.0,0.0,1,1,0
245,'99',1,1,1,90.861,10.438,0.0,0.0,0.0,0.0,1,1,0
246,'1',1,1,1,22.723,45.446,0.0,0.0,0.0,0.0,1,1,0
247,'1',1,1,1,23.212,23.427,0.0,0.0,0.0,0.0,1,1,0
248,'1',1,1,1,41.469,13.645,0.0,0.0,0.0,0.0,1,1,0
249,'99',1,1,1,94.386,12.308,0.0,0.0,0.0,0.0,1,1,0
250,'1',1,1,1,0.17,0.761,0.0,0.0,0.0,0.0,1,1,0
251,'1',1,1,1,21.041,13.918,0.0,0.0,0.0,0.0,1,1,0
252,'1',1,1,1,16.008,6.965,0.0,0.0,0.0,0.0,1,1,0
253,'1',1,1,1,9.862,1.136,0.0,0.0,0.0,0.0,1,1,0
253,'99',1,1,1,8.987,-5.935,0.0,0.0,0.0,0.0,1,1,0
254,'99',1,1,1,79.844,23.28,0.0,0.0,0.0,0.0,1,1,0
256,'1',1,1,1,6.385,1.363,0.0,0.0,0.0,0.0,1,1,0
257,'1',1,1,1,6.385,1.477,0.0,0.0,0.0,0.0,1,1,0
257,'99',1,1,1,25.35,16.232,0.0,0.0,0.0,0.0,1,1,0
258,'1',1,1,1,4.033,0.341,0.0,0.0,0.0,0.0,1,1,0
259,'1',1,1,1,2.693,0.682,0.0,0.0,0.0,0.0,1,1,0
260,'1',1,1,1,4.033,0.682,0.0,0.0,0.0,0.0,1,1,0
261,'1',1,1,1,2.352,0.454,0.0,0.0,0.0,0.0,1,1,0
262,'99',1,1,1,2.914,-9.641,0.0,0.0,0.0,0.0,1,1,0
263,'1',1,1,1,1.341,0.341,0.0,0.0,0.0,0.0,1,1,0
264,'1',1,1,1,0.454,0.114,0.0,0.0,0.0,0.0,1,1,0
266,'1',1,1,1,3.374,3.749,0.0,0.0,0.0,0.0,1,1,0
267,'1',1,1,1,16.69,7.942,0.0,0.0,0.0,0.0,1,1,0
269,'1',0,1,1,1.0,1.0,0.0,0.0,0.0,0.0,1,1,0
270,'1',1,1,1,7.26,3.431,0.0,0.0,0.0,0.0,1,1,0
272,'1',1,1,1,34.846,6.601,0.0,0.0,0.0,0.0,1,1,0
273,'1',1,1,1,4.272,3.136,0.0,0.0,0.0,0.0,1,1,0
274,'1',1,1,1,17.644,4.738,0.0,0.0,0.0,0.0,1,1,0
277,'99',1,1,1,183.433,89.793,0.0,0.0,0.0,0.0,1,1,0
279,'1',1,1,1,8.396,3.499,0.0,0.0,0.0,0.0,1,1,0
281,'1',1,1,1,2.318,3.431,0.0,0.0,0.0,0.0,1,1,0
284,'1',1,1,1,6.76,2.193,0.0,0.0,0.0,0.0,1,1,0
284,'99',1,1,1,7.543,6.286,0.0,0.0,0.0,0.0,1,1,0
285,'1',1,1,1,2.443,2.261,0.0,0.0,0.0,0.0,1,1,0
286,'1',1,1,1,1.613,3.215,0.0,0.0,0.0,0.0,1,1,0
287,'1',1,1,1,1.545,3.011,0.0,0.0,0.0,0.0,1,1,0
289,'1',1,1,1,6.84,3.681,0.0,0.0,0.0,0.0,1,1,0
289,'99',1,1,1,2.418,-3.171,0.0,0.0,0.0,0.0,1,1,0
290,'1',1,1,1,3.158,3.136,0.0,0.0,0.0,0.0,1,1,0
291,'1',1,1,1,1.432,2.511,0.0,0.0,0.0,0.0,1,1,0
...
0 / END OF LOAD DATA BEGIN FIXED SHUNT DATA
2,'1',1,0.0,15.498
23,'1',1,0.0,-120.31
36,'1',1,0.0,-4.438
58,'1',1,0.0,10.592
81,'1',1,0.0,21.502
98,'1',1,0.0,-24.285
100,'1',1,0.0,4.571
102,'1',1,0.0,-43.607
133,'1',1,0.0,-1.321
137,'1',1,0.0,-13.204
143,'1',1,0.0,1.197
145,'1',1,0.0,16.36
149,'1',1,0.0,-8.091
156,'1',1,0.0,40.892
195,'1',1,0.0,5.562
220,'1',1,0.0,-1.094
304,'1',1,0.0,2.218
348,'1',1,0.0,5.534
357,'1',1,0.0,-30.025
363,'1',1,0.0,24.399
364,'1',1,0.0,-71.188
367,'1',1,0.0,60.608
376,'1',1,0.0,-9.534
380,'1',1,0.0,11.017
386,'1',1,0.0,-5.842
390,'1',1,0.0,12.518
428,'1',1,0.0,-7.317
442,'1',1,0.0,-7.663
443,'1',1,0.0,12.284
444,'1',1,0.0,19.281
460,'1',1,0.0,32.216
525,'1',1,0.0,100.748
576,'1',1,0.0,-63.285
591,'1',1,0.0,22.609
595,'1',1,0.0,6.261
623,'1',1,0.0,-2.498
624,'1',1,0.0,6.887
631,'1',1,0.0,30.406
639,'1',1,0.0,-66.624
640,'1',1,0.0,-75.05
642,'1',1,0.0,88.396
653,'1',1,0.0,26.664
684,'1',1,0.0,0.059
696,'1',1,0.0,-1.903
697,'1',1,0.0,-37.362
743,'1',1,0.0,-1.15
748,'1',1,0.0,-19.101
791,'1',1,0.0,0.336
794,'1',1,0.0,-2.22
0 / END OF FIXED SHUNT DATA BEGIN GENERATOR DATA
6,'1',0.0,0.0,33.333,-33.333,1.32815923,0,100.0,0.0,1.0,0.0,0.0,1.0,0,100.0,63.0,28.5,1,1.0,0,1.0,0,1.0,0,1.0,0,1.0
23,'98',204.93250197,-149.3877439,183.0,-183.0,1.21579399,0,100.0,0.0,1.0,0.0,0.0,1.0,1,100.0,526.316,2.0,1,1.0,0,1.0,0,1.0,0,1.0,0,1.0
25,'1',0.0,0.0,22.5,-22.5,1.20741749,0,100.0,0.0,1.0,0.0,0.0,1.0,0,100.0,280.0,2.0,1,1.0,0,1.0,0,1.0,0,1.0,0,1.0
25,'2',0.0,0.0,22.5,-22.5,1.20741749,0,100.0,0.0,1.0,0.0,0.0,1.0,0,100.0,60.43,14.25,1,1.0,0,1.0,0,1.0,0,1.0,0,1.0
31,'99',71.76277778,1.24396415,160.0,-160.0,1.27171887,0,100.0,0.0,1.0,0.0,0.0,1.0,1,100.0,136.038,34.685,1,1.0,0,1.0,0,1.0,0,1.0,0,1.0
33,'1',0.0,0.0,19.29,-19.29,1.27079248,0,100.0,0.0,1.0,0.0,0.0,1.0,0,100.0,46.2,11.4,1,1.0,0,1.0,0,1.0,0,1.0,0,1.0
35,'1',0.0,0.0,33.127,-33.127,1.27261115,0,100.0,0.0,1.0,0.0,0.0,1.0,0,100.0,288.0,2.0,1,1.0,0,1.0,0,1.0,0,1.0,0,1.0
35,'2',0.0,0.0,23.05,-23.05,1.27261115,0,100.0,0.0,1.0,0.0,0.0,1.0,0,100.0,300.0,2.0,1,1.0,0,1.0,0,1.0,0,1.0,0,1.0
35,'3',0.0,0.0,16.237,-16.237,1.27261115,0,100.0,0.0,1.0,0.0,0.0,1.0,0,100.0,40.14,25.14,1,1.0,0,1.0,0,1.0,0,1.0,0,1.0
37,'L1',9.25995187,3.68100313,3.682,3.68,1.32804619,0,100.0,0.0,1.0,0.0,0.0,1.0,1,100.0,9.261,9.259,1,1.0,0,1.0,0,1.0,0,1.0,0,1.0
43,'99',123.41406506,37.07741971,160.0,-160.0,1.42185684,0,100.0,0.0,1.0,0.0,0.0,1.0,1,100.0,301.053,1.129,1,1.0,0,1.0,0,1.0,0,1.0,0,1.0
45,'1',0.0,0.0,67.75,-67.75,1.27079248,0,100.0,0.0,1.0,0.0,0.0,1.0,0,100.0,173.25,50.54,1,1.0,0,1.0,0,1.0,0,1.0,0,1.0
46,'99',29.44776512,65.64288148,160.0,-160.0,1.32406085,0,100.0,0.0,1.0,0.0,0.0,1.0,1,100.0,55.716,11.516,1,1.0,0,1.0,0,1.0,0,1.0,0,1.0
47,'99',35.92744357,44.6706741,160.0,-160.0,1.44214838,0,100.0,0.0,1.0,0.0,0.0,1.0,1,100.0,68.734,15.271,1,1.0,0,1.0,0,1.0,0,1.0,0,1.0
52,'99',59.86145066,61.25174231,160.0,-160.0,1.30279156,0,100.0,0.0,1.0,0.0,0.0,1.0,1,100.0,111.717,27.67,1,1.0,0,1.0,0,1.0,0,1.0,0,1.0
55,'99',72.4759579,78.82317651,160.0,-160.0,1.34223772,0,100.0,0.0,1.0,0.0,0.0,1.0,1,100.0,136.0,34.674,1,1.0,0,1.0,0,1.0,0,1.0,0,1.0
59,'1',186.26445898,-73.94191353,66.11,-103.578,1.21469986,0,100.0,0.0,1.0,0.0,0.0,1.0,1,100.0,297.895,3.833,1,1.0,0,1.0,0,1.0,0,1.0,0,1.0
65,'1',125.69986284,47.34972733,92.232,-2.97,1.42967566,0,100.0,0.0,1.0,0.0,0.0,1.0,1,100.0,265.263,7.393,1,1.0,0,1.0,0,1.0,0,1.0,0,1.0
65,'2',0.0,0.0,9.267,-9.267,1.42967566,0,100.0,0.0,1.0,0.0,0.0,1.0,0,100.0,25.2,4.75,1,1.0,0,1.0,0,1.0,0,1.0,0,1.0
71,'99',35.99610001,34.20152199,160.0,-160.0,1.44532949,0,100.0,0.0,1.0,0.0,0.0,1.0,1,100.0,67.904,15.032,1,1.0,0,1.0,0,1.0,0,1.0,0,1.0
74,'L1',0.37503277,-0.39799848,-0.397,-0.399,1.15861085,0,100.0,0.0,1.0,0.0,0.0,1.0,1,100.0,0.376,0.374,1,1.0,0,1.0,0,1.0,0,1.0,0,1.0
80,'1',0.0,0.0,9.267,-9.267,1.41658435,0,100.0,0.0,1.0,0.0,0.0,1.0,0,100.0,26.25,4.75,1,1.0,0,1.0,0,1.0,0,1.0,0,1.0
80,'2',0.0,0.0,9.267,-9.267,1.41658435,0,100.0,0.0,1.0,0.0,0.0,1.0,0,100.0,25.2,2.0,1,1.0,0,1.0,0,1.0,0,1.0,0,1.0
86,'99',44.20095952,11.17774567,160.0,-160.0,1.27717979,0,100.0,0.0,1.0,0.0,0.0,1.0,1,100.0,83.388,19.498,1,1.0,0,1.0,0,1.0,0,1.0,0,1.0
87,'1',0.0,0.0,95.526,-95.526,1.30230124,0,100.0,0.0,1.0,0.0,0.0,1.0,0,100.0,274.737,2.0,1,1.0,0,1.0,0,1.0,0,1.0,0,1.0
88,'L1',0.29504193,-0.01099924,-0.01,-0.012,1.40363236,0,100.0,0.0,1.0,0.0,0.0,1.0,1,100.0,0.296,0.294,1,1.0,0,1.0,0,1.0,0,1.0,0,1.0
90,'99',33.20553227,69.35765166,160.0,-160.0,1.33315294,0,100.0,0.0,1.0,0.0,0.0,1.0,1,100.0,59.599,12.637,1,1.0,0,1.0,0,1.0,0,1.0,0,1.0
93,'99',107.81068745,34.32243537,160.0,-160.0,1.40770055,0,100.0,0.0,1.0,0.0,0.0,1.0,1,100.0,265.263,2.965,1,1.0,0,1.0,0,1.0,0,1.0,0,1.0
98,'99',0.0,0.0,33.333,-33.333,1.42243716,0,100.0,0.0,1.0,0.0,0.0,1.0,0,100.0,65.268,50.268,1,1.0,0,1.0,0,1.0,0,1.0,0,1.0
99,'1',0.0,0.0,52.613,-1.0,1.42250545,0,100.0,0.0,1.0,0.0,0.0,1.0,0,100.0,151.316,70.0,1,1.0,0,1.0,0,1.0,0,1.0,0,1.0
100,'1',0.0,0.0,52.613,-1.0,1.42279701,0,100.0,0.0,1.0,0.0,0.0,1.0,0,100.0,151.316,70.0,1,1.0,0,1.0,0,1.0,0,1.0,0,1.0
100,'99',0.0,0.0,33.333,-33.333,1.42279701,0,100.0,0.0,1.0,0.0,0.0,1.0,0,100.0,28.104,13.104,1,1.0,0,1.0,0,1.0,0,1.0,0,1.0
105,'97',66.4482469,20.66048926,43.92,-43.92,1.4746284,0,100.0,0.0,1.0,0.0,0.0,1.0,1,100.0,126.316,5.0,1,1.0,0,1.0,0,1.0,0,1.0,0,1.0
116,'1',0.0,0.0,50.325,-40.0,1.56942163,0,100.0,0.0,1.0,0.0,0.0,1.0,0,100.0,144.737,32.0,1,1.0,0,1.0,0,1.0,0,1.0,0,1.0
117,'1',0.0,0.0,37.667,-37.667,1.57083834,0,100.0,0.0,1.0,0.0,0.0,1.0,0,100.0,113.0,32.0,1,1.0,0,1.0,0,1.0,0,1.0,0,1.0
121,'1',0.0,0.0,45.0,-45.0,1.52250066,0,100.0,0.0,1.0,0.0,0.0,1.0,0,100.0,135.0,35.0,1,1.0,0,1.0,0,1.0,0,1.0,0,1.0
131,'1',0.0,0.0,8.333,-8.333,1.32914761,0,100.0,0.0,1.0,0.0,0.0,1.0,0,100.0,25.0,10.0,1,1.0,0,1.0,0,1.0,0,1.0,0,1.0
131,'2',0.0,0.0,8.333,-8.333,1.32914761,0,100.0,0.0,1.0,0.0,0.0,1.0,0,100.0,25.0,10.0,1,1.0,0,1.0,0,1.0,0,1.0,0,1.0
131,'3',0.0,0.0,11.438,-11.438,1.32914761,0,100.0,0.0,1.0,0.0,0.0,1.0,0,100.0,32.895,10.0,1,1.0,0,1.0,0,1.0,0,1.0,0,1.0
131,'4',0.0,0.0,9.15,-9.15,1.32914761,0,100.0,0.0,1.0,0.0,0.0,1.0,0,100.0,26.316,10.0,1,1.0,0,1.0,0,1.0,0,1.0,0,1.0
133,'99',0.0,0.0,33.333,-33.333,1.5682327,0,100.0,0.0,1.0,0.0,0.0,1.0,0,100.0,295.0,2.396,1,1.0,0,1.0,0,1.0,0,1.0,0,1.0
134,'1',30.2222243,8.39662532,16.667,-16.667,1.4050796,0,100.0,0.0,1.0,0.0,0.0,1.0,1,100.0,52.632,5.0,1,1.0,0,1.0,0,1.0,0,1.0,0,1.0
151,'1',0.0,0.0,43.92,-1.0,1.35832687,0,100.0,0.0,1.0,0.0,0.0,1.0,0,100.0,126.316,70.0,1,1.0,0,1.0,0,1.0,0,1.0,0,1.0
151,'2',82.09798017,27.59021213,43.92,-1.0,1.35832687,0,100.0,0.0,1.0,0.0,0.0,1.0,1,100.0,126.316,58.333,1,1.0,0,1.0,0,1.0,0,1.0,0,1.0
151,'97',70.68259943,20.05008002,43.92,-43.92,1.35832687,0,100.0,0.0,1.0,0.0,0.0,1.0,1,100.0,126.316,5.0,1,1.0,0,1.0,0,1.0,0,1.0,0,1.0
152,'1',110.33956625,44.60617275,54.897,-1.0,1.53281402,0,100.0,0.0,1.0,0.0,0.0,1.0,1,100.0,157.887,79.0,1,1.0,0,1.0,0,1.0,0,1.0,0,1.0
152,'2',0.0,0.0,36.667,-36.667,1.53281402,0,100.0,0.0,1.0,0.0,0.0,1.0,0,100.0,110.0,79.0,1,1.0,0,1.0,0,1.0,0,1.0,0,1.0
156,'99',0.0,0.0,33.333,-33.333,1.37514967,0,100.0,0.0,1.0,0.0,0.0,1.0,0,100.0,62.466,47.466,1,1.0,0,1.0,0,1.0,0,1.0,0,1.0
159,'99',179.22726776,134.63013506,160.0,-160.0,1.32661024,0,100.0,0.0,1.0,0.0,0.0,1.0,1,100.0,308.421,0.037,1,1.0,0,1.0,0,1.0,0,1.0,0,1.0
179,'97',68.24204748,20.87153935,43.92,-43.92,1.42922487,0,100.0,0.0,1.0,0.0,0.0,1.0,1,100.0,126.316,10.0,1,1.0,0,1.0,0,1.0,0,1.0,0,1.0
190,'99',50.63919207,116.81968117,160.0,-160.0,1.33624293,0,100.0,0.0,1.0,0.0,0.0,1.0,1,100.0,83.856,18.133,1,1.0,0,1.0,0,1.0,0,1.0,0,1.0
221,'1',0.0,0.0,123.333,-123.333,1.2095041,0,100.0,0.0,1.0,0.0,0.0,1.0,0,100.0,370.0,240.0,1,1.0,0,1.0,0,1.0,0,1.0,0,1.0
221,'2',0.0,0.0,123.333,-123.333,1.2095041,0,100.0,0.0,1.0,0.0,0.0,1.0,0,100.0,370.0,240.0,1,1.0,0,1.0,0,1.0,0,1.0,0,1.0
221,'3',0.0,0.0,157.837,-23.75,1.2095041,0,100.0,0.0,1.0,0.0,0.0,1.0,0,100.0,453.947,240.0,1,1.0,0,1.0,0,1.0,0,1.0,0,1.0
222,'1',353.56526392,-14.37923628,169.275,-19.0,1.23942029,0,100.0,0.0,1.0,0.0,0.0,1.0,1,100.0,486.842,240.0,1,1.0,0,1.0,0,1.0,0,1.0,0,1.0
222,'2',0.0,0.0,135.42,-19.0,1.23942029,0,100.0,0.0,1.0,0.0,0.0,1.0,0,100.0,389.474,240.0,1,1.0,0,1.0,0,1.0,0,1.0,0,1.0
223,'1',551.90500117,-8.09757817,190.0,-19.0,1.17471593,0,100.0,0.0,1.0,0.0,0.0,1.0,1,100.0,1148.453,50.876,1,1.0,0,1.0,0,1.0,0,1.0,0,1.0
223,'2',556.60163342,-8.09757817,190.0,-19.0,1.17471593,0,100.0,0.0,1.0,0.0,0.0,1.0,1,100.0,1148.453,50.876,1,1.0,0,1.0,0,1.0,0,1.0,0,1.0
223,'3',556.60163342,-8.09757817,190.0,-19.0,1.17471593,0,100.0,0.0,1.0,0.0,0.0,1.0,1,100.0,1148.453,50.876,1,1.0,0,1.0,0,1.0,0,1.0,0,1.0
224,'1',0.0,0.0,169.275,-19.0,1.17363274,0,100.0,0.0,1.0,0.0,0.0,1.0,0,100.0,486.842,240.0,1,1.0,0,1.0,0,1.0,0,1.0,0,1.0
224,'2',305.13911284,-8.22236556,155.55,-19.0,1.17363274,0,100.0,0.0,1.0,0.0,0.0,1.0,1,100.0,447.368,240.0,1,1.0,0,1.0,0,1.0,0,1.0,0,1.0
224,'3',305.13911284,-8.22236556,155.55,-19.0,1.17363274,0,100.0,0.0,1.0,0.0,0.0,1.0,1,100.0,447.368,240.0,1,1.0,0,1.0,0,1.0,0,1.0,0,1.0
233,'99',90.07120864,-148.12225324,160.0,-160.0,1.18629799,0,100.0,0.0,1.0,0.0,0.0,1.0,1,100.0,186.779,43.1,1,1.0,0,1.0,0,1.0,0,1.0,0,1.0
236,'1',0.0,0.0,50.325,-15.0,1.0833899,0,100.0,0.0,1.0,0.0,0.0,1.0,0,100.0,144.737,91.667,1,1.0,0,1.0,0,1.0,0,1.0,0,1.0
236,'98',45.44736194,-177.66216805,183.0,-183.0,1.0833899,0,100.0,0.0,1.0,0.0,0.0,1.0,1,100.0,526.316,2.0,1,1.0,0,1.0,0,1.0,0,1.0,0,1.0
246,'1',326.06020603,-9.69488119,160.125,-19.0,1.2682104,0,100.0,0.0,1.0,0.0,0.0,1.0,1,100.0,460.526,240.0,1,1.0,0,1.0,0,1.0,0,1.0,0,1.0
250,'1',0.0,0.0,10.98,-10.98,1.30529904,0,100.0,0.0,1.0,0.0,0.0,1.0,0,100.0,31.579,2.0,1,1.0,0,1.0,0,1.0,0,1.0,0,1.0
256,'1',167.12709698,-86.11015176,92.964,-92.964,1.33899739,0,100.0,0.0,1.0,0.0,0.0,1.0,1,100.0,267.368,2.0,1,1.0,0,1.0,0,1.0,0,1.0,0,1.0
267,'99',157.4021555,48.4308498,160.0,-160.0,1.78750269,0,100.0,0.0,1.0,0.0,0.0,1.0,1,100.0,309.474,2.626,1,1.0,0,1.0,0,1.0,0,1.0,0,1.0
268,'99',295.25010617,139.99319441,160.0,-160.0,1.60942696,0,100.0,0.0,1.0,0.0,0.0,1.0,1,100.0,422.316,97.451,1,1.0,0,1.0,0,1.0,0,1.0,0,1.0
269,'L1',9.74799464,-1.7269331,-1.726,-1.728,1.68714488,0,100.0,0.0,1.0,0.0,0.0,1.0,1,100.0,9.749,9.747,1,1.0,0,1.0,0,1.0,0,1.0,0,1.0
272,'99',49.8431864,134.06951178,160.0,-160.0,1.60064901,0,100.0,0.0,1.0,0.0,0.0,1.0,1,100.0,78.395,15.257,1,1.0,0,1.0,0,1.0,0,1.0,0,1.0
275,'99',42.72415817,120.38715829,160.0,-160.0,1.63533631,0,100.0,0.0,1.0,0.0,0.0,1.0,1,100.0,76.902,1.461,1,1.0,0,1.0,0,1.0,0,1.0,0,1.0
281,'99',146.69566292,78.1261695,160.0,-160.0,1.92619106,0,100.0,0.0,1.0,0.0,0.0,1.0,1,100.0,286.316,1.782,1,1.0,0,1.0,0,1.0,0,1.0,0,1.0
293,'1',0.0,0.0,76.667,-76.667,1.61487479,0,100.0,0.0,1.0,0.0,0.0,1.0,0,100.0,173.25,117.8,1,1.0,0,1.0,0,1.0,0,1.0,0,1.0
296,'1',0.0,0.0,76.667,-76.667,1.61487479,0,100.0,0.0,1.0,0.0,0.0,1.0,0,100.0,173.25,117.8,1,1.0,0,1.0,0,1.0,0,1.0,0,1.0
298,'99',16.6179744,55.39841779,160.0,-160.0,1.8835174,0,100.0,0.0,1.0,0.0,0.0,1.0,1,100.0,29.593,3.981,1,1.0,0,1.0,0,1.0,0,1.0,0,1.0
301,'L2',2.58996892,-2.45399153,-2.453,-2.455,1.67015407,0,100.0,0.0,1.0,0.0,0.0,1.0,1,100.0,2.591,2.589,1,1.0,0,1.0,0,1.0,0,1.0,0,1.0
303,'97',76.91452192,25.7259993,43.92,-43.92,1.92832565,0,100.0,0.0,1.0,0.0,0.0,1.0,1,100.0,126.316,5.0,1,1.0,0,1.0,0,1.0,0,1.0,0,1.0
304,'99',0.0,0.0,33.333,-33.333,1.60616014,0,100.0,0.0,1.0,0.0,0.0,1.0,0,100.0,44.434,29.434,1,1.0,0,1.0,0,1.0,0,1.0,0,1.0
305,'1',0.0,0.0,76.667,-76.667,1.61487479,0,100.0,0.0,1.0,0.0,0.0,1.0,0,100.0,173.25,117.8,1,1.0,0,1.0,0,1.0,0,1.0,0,1.0
307,'99',21.20409721,62.94506054,160.0,-160.0,1.65720552,0,100.0,0.0,1.0,0.0,0.0,1.0,1,100.0,38.823,6.644,1,1.0,0,1.0,0,1.0,0,1.0,0,1.0
309,'1',0.0,0.0,147.09,-81.3,1.47079985,0,100.0,0.0,1.0,0.0,0.0,1.0,0,100.0,519.615,198.808,1,1.0,0,1.0,0,1.0,0,1.0,0,1.0
326,'1',0.0,0.0,76.667,-76.667,1.61487479,0,100.0,0.0,1.0,0.0,0.0,1.0,0,100.0,173.25,117.8,1,1.0,0,1.0,0,1.0,0,1.0,0,1.0
335,'1',0.0,0.0,76.667,-76.667,1.61487479,0,100.0,0.0,1.0,0.0,0.0,1.0,0,100.0,173.25,117.8,1,1.0,0,1.0,0,1.0,0,1.0,0,1.0
337,'99',116.82924968,45.93940115,160.0,-160.0,1.88960306,0,100.0,0.0,1.0,0.0,0.0,1.0,1,100.0,272.632,1.907,1,1.0,0,1.0,0,1.0,0,1.0,0,1.0
339,'L1',2.57895897,-0.73799895,-0.737,-0.739,1.66112976,0,100.0,0.0,1.0,0.0,0.0,1.0,1,100.0,2.58,2.578,1,1.0,0,1.0,0,1.0,0,1.0,0,1.0
342,'1',0.0,0.0,99.918,-99.918,1.53253464,0,100.0,0.0,1.0,0.0,0.0,1.0,0,100.0,287.368,2.0,1,1.0,0,1.0,0,1.0,0,1.0,0,1.0
345,'99',15.79216577,-9.21203955,160.0,-160.0,1.72963393,0,100.0,0.0,1.0,0.0,0.0,1.0,1,100.0,28.717,3.729,1,1.0,0,1.0,0,1.0,0,1.0,0,1.0
350,'99',79.14849425,86.60113099,160.0,-160.0,1.78603198,0,100.0,0.0,1.0,0.0,0.0,1.0,1,100.0,134.156,34.142,1,1.0,0,1.0,0,1.0,0,1.0,0,1.0
352,'1',0.0,0.0,302.333,-302.333,1.59793256,0,100.0,0.0,1.0,0.0,0.0,1.0,0,100.0,254.0,2.0,1,1.0,0,1.0,0,1.0,0,1.0,0,1.0
353,'99',70.6207291,67.13182981,160.0,-160.0,1.61189375,0,100.0,0.0,1.0,0.0,0.0,1.0,1,100.0,124.492,25.542,1,1.0,0,1.0,0,1.0,0,1.0,0,1.0
357,'99',0.0,0.0,33.333,-33.333,1.20499387,0,100.0,0.0,1.0,0.0,0.0,1.0,0,100.0,137.965,122.965,1,1.0,0,1.0,0,1.0,0,1.0,0,1.0
361,'99',329.57314438,-111.75434875,160.0,-160.0,1.35575474,0,100.0,0.0,1.0,0.0,0.0,1.0,1,100.0,526.43,129.035,1,1.0,0,1.0,0,1.0,0,1.0,0,1.0
364,'99',0.0,0.0,33.333,-33.333,1.22834544,0,100.0,0.0,1.0,0.0,0.0,1.0,0,100.0,42.029,27.029,1,1.0,0,1.0,0,1.0,0,1.0,0,1.0
370,'1',0.0,0.0,92.945,-62.0,1.27057538,0,100.0,0.0,1.0,0.0,0.0,1.0,0,100.0,267.313,99.538,1,1.0,0,1.0,0,1.0,0,1.0,0,1.0
370,'2',0.0,0.0,92.945,-62.0,1.27057538,0,100.0,0.0,1.0,0.0,0.0,1.0,0,100.0,267.313,99.538,1,1.0,0,1.0,0,1.0,0,1.0,0,1.0
370,'3',0.0,0.0,92.945,-75.0,1.27057538,0,100.0,0.0,1.0,0.0,0.0,1.0,0,100.0,267.313,99.538,1,1.0,0,1.0,0,1.0,0,1.0,0,1.0
371,'1',106.1910005,-41.23517212,65.514,-65.514,1.27063891,0,100.0,0.0,1.0,0.0,0.0,1.0,1,100.0,188.421,2.0,1,1.0,0,1.0,0,1.0,0,1.0,0,1.0
373,'1',37.49639732,6.08674688,20.13,-20.13,1.26369292,0,100.0,0.0,1.0,0.0,0.0,1.0,1,100.0,57.895,26.0,1,1.0,0,1.0,0,1.0,0,1.0,0,1.0
374,'1',0.0,0.0,18.333,-18.333,1.26329865,0,100.0,0.0,1.0,0.0,0.0,1.0,0,100.0,55.0,26.0,1,1.0,0,1.0,0,1.0,0,1.0,0,1.0
375,'1',0.0,0.0,107.604,-107.604,1.20563046,0,100.0,0.0,1.0,0.0,0.0,1.0,0,100.0,309.474,2.0,1,1.0,0,1.0,0,1.0,0,1.0,0,1.0
376,'1',0.0,0.0,9.516,-9.516,1.28348695,0,100.0,0.0,1.0,0.0,0.0,1.0,0,100.0,27.368,2.0,1,1.0,0,1.0,0,1.0,0,1.0,0,1.0
376,'99',0.0,0.0,33.333,-33.333,1.28348695,0,100.0,0.0,1.0,0.0,0.0,1.0,0,100.0,261.0,3.293,1,1.0,0,1.0,0,1.0,0,1.0,0,1.0
380,'99',0.0,0.0,33.333,-33.333,1.26777769,0,100.0,0.0,1.0,0.0,0.0,1.0,0,100.0,33.035,18.035,1,1.0,0,1.0,0,1.0,0,1.0,0,1.0
384,'1',0.0,0.0,6.588,-6.588,1.2067292,0,100.0,0.0,1.0,0.0,0.0,1.0,0,100.0,18.947,2.0,1,1.0,0,1.0,0,1.0,0,1.0,0,1.0
385,'1',12.39660592,0.33509364,8.052,-8.052,1.20587392,0,100.0,0.0,1.0,0.0,0.0,1.0,1,100.0,23.158,2.0,1,1.0,0,1.0,0,1.0,0,1.0,0,1.0
390,'99',0.0,0.0,33.333,-33.333,1.27585296,0,100.0,0.0,1.0,0.0,0.0,1.0,0,100.0,28.078,13.078,1,1.0,0,1.0,0,1.0,0,1.0,0,1.0
391,'1',180.29820149,15.84981768,108.336,-108.336,1.2332226,0,100.0,0.0,1.0,0.0,0.0,1.0,1,100.0,311.579,2.0,1,1.0,0,1.0,0,1.0,0,1.0,0,1.0
395,'1',0.0,0.0,97.722,-97.722,1.19511479,0,100.0,0.0,1.0,0.0,0.0,1.0,0,100.0,281.053,2.0,1,1.0,0,1.0,0,1.0,0,1.0,0,1.0
401,'1',0.0,0.0,94.794,-94.794,1.26735768,0,100.0,0.0,1.0,0.0,0.0,1.0,0,100.0,272.632,2.0,1,1.0,0,1.0,0,1.0,0,1.0,0,1.0
402,'1',0.0,0.0,96.258,-96.258,1.17132539,0,100.0,0.0,1.0,0.0,0.0,1.0,0,100.0,276.842,2.0,1,1.0,0,1.0,0,1.0,0,1.0,0,1.0
408,'1',0.0,0.0,107.97,-107.97,1.17206986,0,100.0,0.0,1.0,0.0,0.0,1.0,0,100.0,310.526,2.0,1,1.0,0,1.0,0,1.0,0,1.0,0,1.0
414,'1',0.0,0.0,100.65,-100.65,1.20917054,0,100.0,0.0,1.0,0.0,0.0,1.0,0,100.0,289.474,2.0,1,1.0,0,1.0,0,1.0,0,1.0,0,1.0
416,'1',172.37668939,9.15433635,101.016,-101.016,1.2425992,0,100.0,0.0,1.0,0.0,0.0,1.0,1,100.0,290.526,2.0,1,1.0,0,1.0,0,1.0,0,1.0,0,1.0
422,'99',69.12714491,89.8850115,160.0,-160.0,1.2228015,0,100.0,0.0,1.0,0.0,0.0,1.0,1,100.0,123.413,3.78,1,1.0,0,1.0,0,1.0,0,1.0,0,1.0
428,'1',178.34760435,20.57353224,101.016,-101.016,1.58569431,0,100.0,0.0,1.0,0.0,0.0,1.0,1,100.0,290.526,2.0,1,1.0,0,1.0,0,1.0,0,1.0,0,1.0
428,'2',0.0,0.0,97.356,-97.356,1.58569431,0,100.0,0.0,1.0,0.0,0.0,1.0,0,100.0,280.0,2.0,1,1.0,0,1.0,0,1.0,0,1.0,0,1.0
428,'3',181.32339158,23.37273163,107.97,-107.97,1.58569431,0,100.0,0.0,1.0,0.0,0.0,1.0,1,100.0,310.526,2.0,1,1.0,0,1.0,0,1.0,0,1.0,0,1.0
436,'99',68.6561615,135.17446632,160.0,-160.0,1.31585993,0,100.0,0.0,1.0,0.0,0.0,1.0,1,100.0,121.822,11.915,1,1.0,0,1.0,0,1.0,0,1.0,0,1.0
437,'99',101.0655397,119.86092077,160.0,-160.0,1.29574693,0,100.0,0.0,1.0,0.0,0.0,1.0,1,100.0,179.592,22.39,1,1.0,0,1.0,0,1.0,0,1.0,0,1.0
442,'99',0.0,0.0,33.333,-33.333,1.46407257,0,100.0,0.0,1.0,0.0,0.0,1.0,0,100.0,275.0,2.602,1,1.0,0,1.0,0,1.0,0,1.0,0,1.0
443,'99',0.0,0.0,33.333,-33.333,1.45937299,0,100.0,0.0,1.0,0.0,0.0,1.0,0,100.0,29.367,14.367,1,1.0,0,1.0,0,1.0,0,1.0,0,1.0
444,'1',0.0,0.0,1.333,-1.333,1.32455438,0,100.0,0.0,1.0,0.0,0.0,1.0,0,100.0,289.0,3.0,1,1.0,0,1.0,0,1.0,0,1.0,0,1.0
449,'99',26.38356387,55.56949972,160.0,-160.0,1.57110945,0,100.0,0.0,1.0,0.0,0.0,1.0,1,100.0,47.8,6.299,1,1.0,0,1.0,0,1.0,0,1.0,0,1.0
469,'1',166.42519658,63.3596437,92.964,-92.964,1.47928349,0,100.0,0.0,1.0,0.0,0.0,1.0,1,100.0,267.368,2.0,1,1.0,0,1.0,0,1.0,0,1.0,0,1.0
470,'1',0.0,0.0,11.667,-11.667,1.36691038,0,100.0,0.0,1.0,0.0,0.0,1.0,0,100.0,35.0,9.0,1,1.0,0,1.0,0,1.0,0,1.0,0,1.0
470,'2',0.0,0.0,9.201,-9.201,1.36691038,0,100.0,0.0,1.0,0.0,0.0,1.0,0,100.0,26.461,9.0,1,1.0,0,1.0,0,1.0,0,1.0,0,1.0
471,'1',0.0,0.0,11.667,-11.667,1.36458086,0,100.0,0.0,1.0,0.0,0.0,1.0,0,100.0,35.0,9.0,1,1.0,0,1.0,0,1.0,0,1.0,0,1.0
471,'2',0.0,0.0,10.0,-10.0,1.36458086,0,100.0,0.0,1.0,0.0,0.0,1.0,0,100.0,30.0,9.0,1,1.0,0,1.0,0,1.0,0,1.0,0,1.0
471,'3',0.0,0.0,9.333,-9.333,1.36458086,0,100.0,0.0,1.0,0.0,0.0,1.0,0,100.0,28.0,9.0,1,1.0,0,1.0,0,1.0,0,1.0,0,1.0
474,'99',38.50509033,138.21608595,160.0,-160.0,1.55422811,0,100.0,0.0,1.0,0.0,0.0,1.0,1,100.0,70.019,10.13,1,1.0,0,1.0,0,1.0,0,1.0,0,1.0
480,'99',35.04282211,55.16391742,160.0,-160.0,1.18486257,0,100.0,0.0,1.0,0.0,0.0,1.0,1,100.0,65.965,14.473,1,1.0,0,1.0,0,1.0,0,1.0,0,1.0
481,'99',28.4637862,50.59792827,160.0,-160.0,1.1774229,0,100.0,0.0,1.0,0.0,0.0,1.0,1,100.0,53.3,10.82,1,1.0,0,1.0,0,1.0,0,1.0,0,1.0
482,'99',55.21107904,74.97196178,160.0,-160.0,1.23373341,0,100.0,0.0,1.0,0.0,0.0,1.0,1,100.0,100.941,24.561,1,1.0,0,1.0,0,1.0,0,1.0,0,1.0
483,'99',143.99406744,-57.34350143,160.0,-160.0,1.27220347,0,100.0,0.0,1.0,0.0,0.0,1.0,1,100.0,306.331,50.888,1,1.0,0,1.0,0,1.0,0,1.0,0,1.0
487,'99',74.45548248,71.33965242,160.0,-160.0,1.19087559,0,100.0,0.0,1.0,0.0,0.0,1.0,1,100.0,135.14,34.426,1,1.0,0,1.0,0,1.0,0,1.0,0,1.0
490,'99',47.86977129,74.59322114,160.0,-160.0,1.20956048,0,100.0,0.0,1.0,0.0,0.0,1.0,1,100.0,83.565,19.549,1,1.0,0,1.0,0,1.0,0,1.0,0,1.0
494,'99',42.37981644,-4.31153824,160.0,-160.0,1.26401715,0,100.0,0.0,1.0,0.0,0.0,1.0,1,100.0,83.599,10.194,1,1.0,0,1.0,0,1.0,0,1.0,0,1.0
499,'99',47.12314691,50.97617026,160.0,-160.0,1.26017236,0,100.0,0.0,1.0,0.0,0.0,1.0,1,100.0,89.883,18.303,1,1.0,0,1.0,0,1.0,0,1.0,0,1.0
525,'99',0.0,0.0,33.333,-33.333,1.20879063,0,100.0,0.0,1.0,0.0,0.0,1.0,0,100.0,203.917,188.917,1,1.0,0,1.0,0,1.0,0,1.0,0,1.0
549,'99',31.62363048,-53.80151156,160.0,-160.0,1.15752294,0,100.0,0.0,1.0,0.0,0.0,1.0,1,100.0,58.576,7.318,1,1.0,0,1.0,0,1.0,0,1.0,0,1.0
559,'1',0.0,0.0,31.015,-31.015,1.21281647,0,100.0,0.0,1.0,0.0,0.0,1.0,0,100.0,80.5,31.0,1,1.0,0,1.0,0,1.0,0,1.0,0,1.0
564,'1',0.0,0.0,47.69,-11.618,1.21397885,0,100.0,0.0,1.0,0.0,0.0,1.0,0,100.0,137.159,36.178,1,1.0,0,1.0,0,1.0,0,1.0,0,1.0
565,'1',74.20531012,3.21161096,47.692,-11.62,1.21435068,0,100.0,0.0,1.0,0.0,0.0,1.0,1,100.0,137.164,38.4,1,1.0,0,1.0,0,1.0,0,1.0,0,1.0
566,'1',0.0,0.0,47.692,-11.62,1.21397885,0,100.0,0.0,1.0,0.0,0.0,1.0,0,100.0,137.164,26.42,1,1.0,0,1.0,0,1.0,0,1.0,0,1.0
567,'1',0.0,0.0,47.692,-11.62,1.21397885,0,100.0,0.0,1.0,0.0,0.0,1.0,0,100.0,137.164,13.12,1,1.0,0,1.0,0,1.0,0,1.0,0,1.0
568,'1',0.0,0.0,47.69,-11.618,1.21397885,0,100.0,0.0,1.0,0.0,0.0,1.0,0,100.0,137.159,52.077,1,1.0,0,1.0,0,1.0,0,1.0,0,1.0
569,'1',70.83250466,3.21311756,47.692,-11.62,1.21439923,0,100.0,0.0,1.0,0.0,0.0,1.0,1,100.0,137.164,23.76,1,1.0,0,1.0,0,1.0,0,1.0,0,1.0
570,'1',0.0,0.0,44.179,-44.179,1.21397885,0,100.0,0.0,1.0,0.0,0.0,1.0,0,100.0,95.0,40.98,1,1.0,0,1.0,0,1.0,0,1.0,0,1.0
571,'1',69.58895643,3.70269682,43.286,-10.545,1.2145327,0,100.0,0.0,1.0,0.0,0.0,1.0,1,100.0,124.493,41.357,1,1.0,0,1.0,0,1.0,0,1.0,0,1.0
572,'1',0.0,0.0,43.286,-10.54,1.21397885,0,100.0,0.0,1.0,0.0,0.0,1.0,0,100.0,124.493,39.82,1,1.0,0,1.0,0,1.0,0,1.0,0,1.0
573,'1',0.0,0.0,5.906,-5.906,1.23311291,0,100.0,0.0,1.0,0.0,0.0,1.0,0,100.0,16.985,2.0,1,1.0,0,1.0,0,1.0,0,1.0,0,1.0
576,'99',0.0,0.0,33.333,-33.333,1.17056033,0,100.0,0.0,1.0,0.0,0.0,1.0,0,100.0,85.769,70.769,1,1.0,0,1.0,0,1.0,0,1.0,0,1.0
578,'1',161.37553691,36.49831062,75.03,-21.0,1.25874135,0,100.0,0.0,1.0,0.0,0.0,1.0,1,100.0,215.789,135.0,1,1.0,0,1.0,0,1.0,0,1.0,0,1.0
579,'2',0.0,0.0,68.333,-68.333,1.25939633,0,100.0,0.0,1.0,0.0,0.0,1.0,0,100.0,205.0,135.0,1,1.0,0,1.0,0,1.0,0,1.0,0,1.0
579,'3',0.0,0.0,84.912,-31.0,1.25939633,0,100.0,0.0,1.0,0.0,0.0,1.0,0,100.0,244.211,100.0,1,1.0,0,1.0,0,1.0,0,1.0,0,1.0
579,'98',262.88914771,98.87480078,183.0,-183.0,1.25939633,0,100.0,0.0,1.0,0.0,0.0,1.0,1,100.0,526.316,2.0,1,1.0,0,1.0,0,1.0,0,1.0,0,1.0
580,'1',0.0,0.0,91.616,-15.0,1.30727868,0,100.0,0.0,1.0,0.0,0.0,1.0,0,100.0,263.492,90.0,1,1.0,0,1.0,0,1.0,0,1.0,0,1.0
581,'1',0.0,0.0,77.333,-77.333,1.30749467,0,100.0,0.0,1.0,0.0,0.0,1.0,0,100.0,232.0,100.0,1,1.0,0,1.0,0,1.0,0,1.0,0,1.0
581,'2',0.0,0.0,91.5,-15.0,1.30749467,0,100.0,0.0,1.0,0.0,0.0,1.0,0,100.0,263.158,90.0,1,1.0,0,1.0,0,1.0,0,1.0,0,1.0
587,'99',434.6614621,-115.45896386,160.0,-160.0,1.33284394,0,100.0,0.0,1.0,0.0,0.0,1.0,1,100.0,963.105,72.892,1,1.0,0,1.0,0,1.0,0,1.0,0,1.0
591,'99',0.0,0.0,33.333,-33.333,1.32187352,0,100.0,0.0,1.0,0.0,0.0,1.0,0,100.0,74.949,59.949,1,1.0,0,1.0,0,1.0,0,1.0,0,1.0
596,'1',154.71828966,48.37338383,81.252,-19.0,1.36434346,0,100.0,0.0,1.0,0.0,0.0,1.0,1,100.0,233.684,90.0,1,1.0,0,1.0,0,1.0,0,1.0,0,1.0
599,'1',0.0,0.0,0.333,-0.333,1.19264142,0,100.0,0.0,1.0,0.0,0.0,1.0,0,100.0,299.0,2.0,1,1.0,0,1.0,0,1.0,0,1.0,0,1.0
602,'1',11.69993257,0.30580678,7.32,-7.32,1.20327873,0,100.0,0.0,1.0,0.0,0.0,1.0,1,100.0,21.053,5.0,1,1.0,0,1.0,0,1.0,0,1.0,0,1.0
611,'1',15.20282939,0.85017669,9.516,-9.516,1.26576772,0,100.0,0.0,1.0,0.0,0.0,1.0,1,100.0,27.368,2.0,1,1.0,0,1.0,0,1.0,0,1.0,0,1.0
619,'1',0.0,0.0,0.333,-0.333,1.26884231,0,100.0,0.0,1.0,0.0,0.0,1.0,0,100.0,252.0,2.0,1,1.0,0,1.0,0,1.0,0,1.0,0,1.0
620,'1',172.27740642,40.85102081,94.428,-94.428,1.28318201,0,100.0,0.0,1.0,0.0,0.0,1.0,1,100.0,271.579,2.0,1,1.0,0,1.0,0,1.0,0,1.0,0,1.0
623,'99',0.0,0.0,33.333,-33.333,1.34704659,0,100.0,0.0,1.0,0.0,0.0,1.0,0,100.0,259.0,5.802,1,1.0,0,1.0,0,1.0,0,1.0,0,1.0
625,'1',29.45499206,1.916106,18.3,-18.3,1.26202838,0,100.0,0.0,1.0,0.0,0.0,1.0,1,100.0,52.632,2.0,1,1.0,0,1.0,0,1.0,0,1.0,0,1.0
630,'1',199.05119898,38.06010576,101.382,-101.382,1.25782177,0,100.0,0.0,1.0,0.0,0.0,1.0,1,100.0,291.579,2.0,1,1.0,0,1.0,0,1.0,0,1.0,0,1.0
633,'99',79.11333121,-112.07456654,160.0,-160.0,1.30790296,0,100.0,0.0,1.0,0.0,0.0,1.0,1,100.0,145.216,10.951,1,1.0,0,1.0,0,1.0,0,1.0,0,1.0
634,'99',161.37148079,-46.38391121,160.0,-160.0,1.3955541,0,100.0,0.0,1.0,0.0,0.0,1.0,1,100.0,296.567,15.443,1,1.0,0,1.0,0,1.0,0,1.0,0,1.0
639,'99',0.0,0.0,33.333,-33.333,1.15578103,0,100.0,0.0,1.0,0.0,0.0,1.0,0,100.0,85.248,70.248,1,1.0,0,1.0,0,1.0,0,1.0,0,1.0
640,'99',0.0,0.0,33.333,-33.333,1.15547727,0,100.0,0.0,1.0,0.0,0.0,1.0,0,100.0,221.788,206.788,1,1.0,0,1.0,0,1.0,0,1.0,0,1.0
645,'1',168.83834595,4.4646021,92.855,-62.0,1.38323276,0,100.0,0.0,1.0,0.0,0.0,1.0,1,100.0,267.056,98.483,1,1.0,0,1.0,0,1.0,0,1.0,0,1.0
645,'2',0.0,0.0,92.855,-62.0,1.38323276,0,100.0,0.0,1.0,0.0,0.0,1.0,0,100.0,267.056,98.483,1,1.0,0,1.0,0,1.0,0,1.0,0,1.0
645,'3',168.83834595,-3.90936707,92.855,-75.0,1.38323276,0,100.0,0.0,1.0,0.0,0.0,1.0,1,100.0,267.056,98.483,1,1.0,0,1.0,0,1.0,0,1.0,0,1.0
646,'1',107.02489799,-7.92898347,65.514,-65.514,1.38343243,0,100.0,0.0,1.0,0.0,0.0,1.0,1,100.0,188.421,2.0,1,1.0,0,1.0,0,1.0,0,1.0,0,1.0
648,'98',171.14415745,94.89502265,183.0,-183.0,1.61914071,0,100.0,0.0,1.0,0.0,0.0,1.0,1,100.0,526.316,2.0,1,1.0,0,1.0,0,1.0,0,1.0,0,1.0
649,'1',0.0,0.0,20.13,-20.13,1.31322752,0,100.0,0.0,1.0,0.0,0.0,1.0,0,100.0,57.895,26.0,1,1.0,0,1.0,0,1.0,0,1.0,0,1.0
650,'1',0.0,0.0,18.333,-18.333,1.31380946,0,100.0,0.0,1.0,0.0,0.0,1.0,0,100.0,55.0,26.0,1,1.0,0,1.0,0,1.0,0,1.0,0,1.0
652,'1',146.59909564,54.03367037,98.82,-98.82,1.71968947,0,100.0,0.0,1.0,0.0,0.0,1.0,1,100.0,284.211,2.0,1,1.0,0,1.0,0,1.0,0,1.0,0,1.0
652,'98',157.88518949,130.30688987,183.0,-183.0,1.71968947,0,100.0,0.0,1.0,0.0,0.0,1.0,1,100.0,526.316,2.0,1,1.0,0,1.0,0,1.0,0,1.0,0,1.0
659,'1',10.13060149,0.16415668,6.588,-6.588,1.4516146,0,100.0,0.0,1.0,0.0,0.0,1.0,1,100.0,18.947,2.0,1,1.0,0,1.0,0,1.0,0,1.0,0,1.0
660,'1',0.0,0.0,8.052,-8.052,1.45315084,0,100.0,0.0,1.0,0.0,0.0,1.0,0,100.0,23.158,2.0,1,1.0,0,1.0,0,1.0,0,1.0,0,1.0
667,'1',149.73441083,49.44197125,108.702,-108.702,1.71159358,0,100.0,0.0,1.0,0.0,0.0,1.0,1,100.0,312.632,2.0,1,1.0,0,1.0,0,1.0,0,1.0,0,1.0
667,'98',184.8055409,111.31130845,183.0,-183.0,1.71159358,0,100.0,0.0,1.0,0.0,0.0,1.0,1,100.0,526.316,2.0,1,1.0,0,1.0,0,1.0,0,1.0,0,1.0
674,'1',157.53309473,21.36433708,100.284,-100.284,1.48118081,0,100.0,0.0,1.0,0.0,0.0,1.0,1,100.0,288.421,2.0,1,1.0,0,1.0,0,1.0,0,1.0,0,1.0
675,'1',8.58309224,0.41571309,5.49,-5.49,1.26553439,0,100.0,0.0,1.0,0.0,0.0,1.0,1,100.0,15.789,2.0,1,1.0,0,1.0,0,1.0,0,1.0,0,1.0
679,'1',118.92244593,5.3718683,93.33,-93.33,1.21586251,0,100.0,0.0,1.0,0.0,0.0,1.0,1,100.0,268.421,2.0,1,1.0,0,1.0,0,1.0,0,1.0,0,1.0
684,'1',167.0963558,75.76639588,107.97,-107.97,1.51886044,0,100.0,0.0,1.0,0.0,0.0,1.0,1,100.0,310.526,2.0,1,1.0,0,1.0,0,1.0,0,1.0,0,1.0
684,'99',0.0,0.0,33.333,-33.333,1.51886044,0,100.0,0.0,1.0,0.0,0.0,1.0,0,100.0,34.44,19.44,1,1.0,0,1.0,0,1.0,0,1.0,0,1.0
688,'1',153.92138377,34.3663542,98.088,-98.088,1.44689771,0,100.0,0.0,1.0,0.0,0.0,1.0,1,100.0,282.105,2.0,1,1.0,0,1.0,0,1.0,0,1.0,0,1.0
690,'1',158.84021714,41.42859331,106.506,-106.506,1.68856276,0,100.0,0.0,1.0,0.0,0.0,1.0,1,100.0,306.316,2.0,1,1.0,0,1.0,0,1.0,0,1.0,0,1.0
690,'98',173.87183085,100.5796096,183.0,-183.0,1.68856276,0,100.0,0.0,1.0,0.0,0.0,1.0,1,100.0,526.316,2.0,1,1.0,0,1.0,0,1.0,0,1.0,0,1.0
693,'98',157.1803155,61.24299082,183.0,-183.0,1.47182293,0,100.0,0.0,1.0,0.0,0.0,1.0,1,100.0,526.316,2.0,1,1.0,0,1.0,0,1.0,0,1.0,0,1.0
696,'99',0.0,0.0,33.333,-33.333,1.42361731,0,100.0,0.0,1.0,0.0,0.0,1.0,0,100.0,28.122,13.122,1,1.0,0,1.0,0,1.0,0,1.0,0,1.0
697,'99',0.0,0.0,33.333,-33.333,1.42102087,0,100.0,0.0,1.0,0.0,0.0,1.0,0,100.0,257.0,4.417,1,1.0,0,1.0,0,1.0,0,1.0,0,1.0
...
0 / END OF GENERATOR DATA BEGIN BRANCH DATA
1,60,'1',0.02461,0.07336,0.00802,320.0,320.0,320.0,0.0,0.0,0.0,0.0,1,1,0.0,1,1.0,0,1.0,0,1.0,0,1.0
1,93,'1',0.03244,0.09513,0.01073,320.0,320.0,320.0,0.0,0.0,0.0,0.0,1,1,0.0,1,1.0,0,1.0,0,1.0,0,1.0
2,74,'1',0.00068,0.00368,0.00043,312.5,312.5,312.5,0.0,0.0,0.0,0.0,1,1,0.0,1,1.0,0,1.0,0,1.0,0,1.0
2,549,'1',0.0001,0.01,0.0,299.525,359.5,359.5,0.0,0.0,0.0,0.0,1,1,0.0,1,1.0,0,1.0,0,1.0,0,1.0
4,43,'1',0.0037,0.01909,0.00247,475.0,475.0,475.0,0.0,0.0,0.0,0.0,1,1,0.0,1,1.0,0,1.0,0,1.0,0,1.0
4,93,'1',0.00349,0.01802,0.00231,475.0,475.0,475.0,0.0,0.0,0.0,0.0,1,1,0.0,1,1.0,0,1.0,0,1.0,0,1.0
7,60,'1',0.01649,0.04916,0.00537,320.0,320.0,320.0,0.0,0.0,0.0,0.0,1,1,0.0,1,1.0,0,1.0,0,1.0,0,1.0
7,73,'1',0.00374,0.01116,0.00122,320.0,320.0,320.0,0.0,0.0,0.0,0.0,1,1,0.0,1,1.0,0,1.0,0,1.0,0,1.0
10,27,'1',0.0125,0.02353,0.00262,185.0,185.0,185.0,0.0,0.0,0.0,0.0,1,1,0.0,1,1.0,0,1.0,0,1.0,0,1.0
11,92,'1',0.00236,0.00669,0.00079,155.0,155.0,155.0,0.0,0.0,0.0,0.0,1,1,0.0,1,1.0,0,1.0,0,1.0,0,1.0
16,93,'1',0.00506,0.01482,0.00168,833.625,962.0,962.0,0.0,0.0,0.0,0.0,1,1,0.0,1,1.0,0,1.0,0,1.0,0,1.0
17,81,'1',0.00892,0.05374,0.01281,622.5,622.5,622.5,0.0,0.0,0.0,0.0,1,1,0.0,1,1.0,0,1.0,0,1.0,0,1.0
17,93,'1',0.0001,0.001,0.0,650.0,780.0,780.0,0.0,0.0,0.0,0.0,1,1,0.0,1,1.0,0,1.0,0,1.0,0,1.0
18,66,'1',2e-05,0.001,0.0,832.5,875.0,875.0,0.0,0.0,0.0,0.0,1,1,0.0,1,1.0,0,1.0,0,1.0,0,1.0
19,31,'1',0.00071,0.00582,0.01221,1275.0,1275.0,1275.0,0.0,0.0,0.0,0.0,1,1,0.0,1,1.0,0,1.0,0,1.0,0,1.0
19,35,'1',7e-05,0.001,0.00171,1410.0,1530.0,1530.0,0.0,0.0,0.0,0.0,1,1,0.0,1,1.0,0,1.0,0,1.0,0,1.0
19,69,'1',0.0001,0.001,0.0,650.0,780.0,780.0,0.0,0.0,0.0,0.0,1,1,0.0,1,1.0,0,1.0,0,1.0,0,1.0
21,57,'1',0.04598,0.09139,0.00983,215.0,215.0,215.0,0.0,0.0,0.0,0.0,1,1,0.0,1,1.0,0,1.0,0,1.0,0,1.0
21,91,'1',0.02947,0.10073,0.01266,215.0,215.0,215.0,0.0,0.0,0.0,0.0,1,1,0.0,1,1.0,0,1.0,0,1.0,0,1.0
22,67,'1',0.01108,0.04402,0.00618,590.675,708.75,708.75,0.0,0.0,0.0,0.0,1,1,0.0,1,1.0,0,1.0,0,1.0,0,1.0
22,73,'1',0.00993,0.03804,0.00535,563.65,676.5,676.5,0.0,0.0,0.0,0.0,1,1,0.0,1,1.0,0,1.0,0,1.0,0,1.0
23,44,'1',0.00266,0.01058,0.0015,692.325,830.75,830.75,0.0,0.0,0.0,0.0,1,1,0.0,1,1.0,0,1.0,0,1.0,0,1.0
23,137,'1',0.0001,0.01,0.0,381.875,458.25,458.25,0.0,0.0,0.0,0.0,1,1,0.0,1,1.0,0,1.0,0,1.0,0,1.0
23,254,'1',0.0001,0.01,0.0,750.0,1000.0,1000.0,0.0,0.0,0.0,0.0,1,1,0.0,1,1.0,0,1.0,0,1.0,0,1.0
24,94,'1',0.00489,0.02021,0.00261,352.5,382.5,382.5,0.0,0.0,0.0,0.0,1,1,0.0,1,1.0,0,1.0,0,1.0,0,1.0
27,72,'1',0.01151,0.02166,0.00241,185.0,185.0,185.0,0.0,0.0,0.0,0.0,1,1,0.0,1,1.0,0,1.0,0,1.0,0,1.0
30,73,'1',0.01736,0.07168,0.00928,412.5,412.5,412.5,0.0,0.0,0.0,0.0,1,1,0.0,1,1.0,0,1.0,0,1.0,0,1.0
30,94,'1',0.01303,0.05385,0.00695,352.5,382.5,382.5,0.0,0.0,0.0,0.0,1,1,0.0,1,1.0,0,1.0,0,1.0,0,1.0
31,38,'1',0.00032,0.00211,0.00427,1015.0,1080.0,1080.0,0.0,0.0,0.0,0.0,1,1,0.0,1,1.0,0,1.0,0,1.0,0,1.0
31,66,'1',0.00151,0.01243,0.02626,1242.5,1242.5,1242.5,0.0,0.0,0.0,0.0,1,1,0.0,1,1.0,0,1.0,0,1.0,0,1.0
31,66,'2',0.00151,0.01236,0.02612,1275.0,1275.0,1275.0,0.0,0.0,0.0,0.0,1,1,0.0,1,1.0,0,1.0,0,1.0,0,1.0
32,50,'1',0.0092,0.02296,0.00287,650.0,780.0,780.0,0.0,0.0,0.0,0.0,1,1,0.0,1,1.0,0,1.0,0,1.0,0,1.0
32,72,'1',0.02022,0.04363,0.00517,185.0,185.0,185.0,0.0,0.0,0.0,0.0,1,1,0.0,1,1.0,0,1.0,0,1.0,0,1.0
33,36,'1',0.0001,0.001,0.0,650.0,780.0,780.0,0.0,0.0,0.0,0.0,1,1,0.0,1,1.0,0,1.0,0,1.0,0,1.0
36,38,'1',0.00062,0.00521,0.01419,1582.5,1582.5,1582.5,0.0,0.0,0.0,0.0,1,1,0.0,1,1.0,0,1.0,0,1.0,0,1.0
36,45,'1',0.0001,0.001,0.0,650.0,780.0,780.0,0.0,0.0,0.0,0.0,1,1,0.0,1,1.0,0,1.0,0,1.0,0,1.0
36,483,'1',0.0001,0.01,0.0,643.975,743.0,743.0,0.0,0.0,0.0,0.0,1,1,0.0,1,1.0,0,1.0,0,1.0,0,1.0
37,55,'1',0.00249,0.02091,0.043,1275.0,1275.0,1275.0,0.0,0.0,0.0,0.0,1,1,0.0,1,1.0,0,1.0,0,1.0,0,1.0
37,79,'1',0.00037,0.00306,0.00647,1275.0,1275.0,1275.0,0.0,0.0,0.0,0.0,1,1,0.0,1,1.0,0,1.0,0,1.0,0,1.0
40,47,'1',0.00855,0.03356,0.00426,400.0,400.0,400.0,0.0,0.0,0.0,0.0,1,1,0.0,1,1.0,0,1.0,0,1.0,0,1.0
40,93,'1',0.01448,0.0565,0.00724,400.0,400.0,400.0,0.0,0.0,0.0,0.0,1,1,0.0,1,1.0,0,1.0,0,1.0,0,1.0
41,46,'1',0.00572,0.03592,0.12701,1542.5,1542.5,1542.5,0.0,0.0,0.0,0.0,1,1,0.0,1,1.0,0,1.0,0,1.0,0,1.0
41,87,'1',0.0001,0.001,0.0,650.0,780.0,780.0,0.0,0.0,0.0,0.0,1,1,0.0,1,1.0,0,1.0,0,1.0,0,1.0
43,294,'1',3.7,19.09,0.00247,475.0,475.0,475.0,0.0,0.0,0.0,0.0,1,1,0.0,1,1.0,0,1.0,0,1.0,0,1.0
44,67,'1',0.01683,0.06688,0.0094,662.25,794.75,794.75,0.0,0.0,0.0,0.0,1,1,0.0,1,1.0,0,1.0,0,1.0,0,1.0
46,90,'1',0.00242,0.01482,0.05476,1645.0,1645.0,1645.0,0.0,0.0,0.0,0.0,1,1,0.0,1,1.0,0,1.0,0,1.0,0,1.0
50,74,'1',0.00113,0.00465,0.00061,185.0,185.0,185.0,0.0,0.0,0.0,0.0,1,1,0.0,1,1.0,0,1.0,0,1.0,0,1.0
52,87,'1',0.0001,0.001,0.0,650.0,780.0,780.0,0.0,0.0,0.0,0.0,1,1,0.0,1,1.0,0,1.0,0,1.0,0,1.0
53,62,'1',0.00689,0.01291,0.00144,185.0,185.0,185.0,0.0,0.0,0.0,0.0,1,1,0.0,1,1.0,0,1.0,0,1.0,0,1.0
53,82,'1',0.00037,0.001,0.0,185.0,185.0,185.0,0.0,0.0,0.0,0.0,1,1,0.0,1,1.0,0,1.0,0,1.0,0,1.0
57,85,'1',0.0002,0.001,0.0,215.0,215.0,215.0,0.0,0.0,0.0,0.0,1,1,0.0,1,1.0,0,1.0,0,1.0,0,1.0
58,76,'1',0.02397,0.04498,0.00499,185.0,185.0,185.0,0.0,0.0,0.0,0.0,1,1,0.0,1,1.0,0,1.0,0,1.0,0,1.0
58,91,'1',0.0293,0.08307,0.00997,320.0,320.0,320.0,0.0,0.0,0.0,0.0,1,1,0.0,1,1.0,0,1.0,0,1.0,0,1.0
58,92,'1',0.03256,0.0924,0.01108,147.5,147.5,147.5,0.0,0.0,0.0,0.0,1,1,0.0,1,1.0,0,1.0,0,1.0,0,1.0
58,499,'1',0.0001,0.01,0.0,347.95,417.5,417.5,0.0,0.0,0.0,0.0,1,1,0.0,1,1.0,0,1.0,0,1.0,0,1.0
62,76,'1',0.00523,0.00981,0.00108,185.0,185.0,185.0,0.0,0.0,0.0,0.0,1,1,0.0,1,1.0,0,1.0,0,1.0,0,1.0
63,90,'1',0.00075,0.00528,0.02325,827.5,827.5,827.5,0.0,0.0,0.0,0.0,1,1,0.0,1,1.0,0,1.0,0,1.0,0,1.0
68,83,'1',0.01058,0.02193,0.00216,215.0,215.0,215.0,0.0,0.0,0.0,0.0,1,1,0.0,1,1.0,0,1.0,0,1.0,0,1.0
68,84,'1',0.0059,0.01222,0.00121,215.0,215.0,215.0,0.0,0.0,0.0,0.0,1,1,0.0,1,1.0,0,1.0,0,1.0,0,1.0
69,86,'1',0.00519,0.04108,0.09283,1275.0,1275.0,1275.0,0.0,0.0,0.0,0.0,1,1,0.0,1,1.0,0,1.0,0,1.0,0,1.0
71,93,'1',0.03778,0.11512,0.0141,320.0,320.0,320.0,0.0,0.0,0.0,0.0,1,1,0.0,1,1.0,0,1.0,0,1.0,0,1.0
79,87,'1',0.00493,0.0412,0.0844,1275.0,1275.0,1275.0,0.0,0.0,0.0,0.0,1,1,0.0,1,1.0,0,1.0,0,1.0,0,1.0
81,494,'1',0.0001,0.01,0.0,589.625,680.25,680.25,0.0,0.0,0.0,0.0,1,1,0.0,1,1.0,0,1.0,0,1.0,0,1.0
83,91,'1',0.0039,0.01106,0.00133,215.0,215.0,215.0,0.0,0.0,0.0,0.0,1,1,0.0,1,1.0,0,1.0,0,1.0,0,1.0
90,533,'1',2.42,14.82,0.05476,1645.0,1645.0,1645.0,0.0,0.0,0.0,0.0,1,1,0.0,1,1.0,0,1.0,0,1.0,0,1.0
95,96,'1',2e-05,0.00021,0.0,2190.0,2190.0,2190.0,0.0,0.0,0.0,0.0,1,1,0.0,1,1.0,0,1.0,0,1.0,0,1.0
95,99,'1',0.00171,0.00961,0.01424,625.0,625.0,625.0,0.0,0.0,0.0,0.0,1,1,0.0,1,1.0,0,1.0,0,1.0,0,1.0
96,748,'1',0.0001,0.01,0.0,304.525,365.5,365.5,0.0,0.0,0.0,0.0,1,1,0.0,1,1.0,0,1.0,0,1.0,0,1.0
97,98,'1',2e-05,0.00021,0.0,2190.0,2190.0,2190.0,0.0,0.0,0.0,0.0,1,1,0.0,1,1.0,0,1.0,0,1.0,0,1.0
97,100,'1',0.00194,0.01415,0.0223,852.5,852.5,852.5,0.0,0.0,0.0,0.0,1,1,0.0,1,1.0,0,1.0,0,1.0,0,1.0
97,697,'1',0.0001,0.01,0.0,209.25,246.5,246.5,0.0,0.0,0.0,0.0,1,1,0.0,1,1.0,0,1.0,0,1.0,0,1.0
98,749,'1',0.0001,0.01,0.0,306.375,353.5,353.5,0.0,0.0,0.0,0.0,1,1,0.0,1,1.0,0,1.0,0,1.0,0,1.0
99,100,'1',2e-05,0.00021,0.0,2190.0,2190.0,2190.0,0.0,0.0,0.0,0.0,1,1,0.0,1,1.0,0,1.0,0,1.0,0,1.0
99,102,'1',0.00537,0.04039,0.06005,797.5,797.5,797.5,0.0,0.0,0.0,0.0,1,1,0.0,1,1.0,0,1.0,0,1.0,0,1.0
100,698,'1',0.0001,0.01,0.0,469.7,542.0,542.0,0.0,0.0,0.0,0.0,1,1,0.0,1,1.0,0,1.0,0,1.0,0,1.0
101,102,'1',0.00066,0.00496,0.00758,797.5,797.5,797.5,0.0,0.0,0.0,0.0,1,1,0.0,1,1.0,0,1.0,0,1.0,0,1.0
101,696,'1',0.0001,0.01,0.0,314.5,377.5,377.5,0.0,0.0,0.0,0.0,1,1,0.0,1,1.0,0,1.0,0,1.0,0,1.0
102,747,'1',0.0001,0.01,0.0,646.825,746.25,746.25,0.0,0.0,0.0,0.0,1,1,0.0,1,1.0,0,1.0,0,1.0,0,1.0
103,152,'1',0.01248,0.04595,0.00524,187.5,187.5,187.5,0.0,0.0,0.0,0.0,1,1,0.0,1,1.0,0,1.0,0,1.0,0,1.0
104,105,'1',8e-05,0.00083,0.0,1585.275,1829.25,1829.25,0.0,0.0,0.0,0.0,1,1,0.0,1,1.0,0,1.0,0,1.0,0,1.0
104,170,'1',0.00364,0.01149,0.00123,1611.725,1859.75,1859.75,0.0,0.0,0.0,0.0,1,1,0.0,1,1.0,0,1.0,0,1.0,0,1.0
...